/*---------------------------------------------------------------------------*\
| =========                 |                                                 |
| \\      /  F ield         | OpenFOAM: The Open Source CFD Toolbox           |
|  \\    /   O peration     | Version:  5.0                                   |
|   \\  /    A nd           | Web:      www.OpenFOAM.org                      |
|    \\/     M anipulation  |                                                 |
\*---------------------------------------------------------------------------*/
Build  : 5.0
Exec   : simpleFoam
Date   : Oct 27 2022
Time   : 21:28:00
Host   : "cpu-e-915"
PID    : 3978
I/O    : uncollated
Case   : /rds/project/iris_vol2/rds-ukaea-ap001/ir-gopa2/Code/Simtrack_Testing/OpenFOAM/laminar_steady
nProcs : 1
sigFpe : Enabling floating point exception trapping (FOAM_SIGFPE).
fileModificationChecking : Monitoring run-time modified files using timeStampMaster (fileModificationSkew 10)
allowSystemOperations : Allowing user-supplied system call operations

// * * * * * * * * * * * * * * * * * * * * * * * * * * * * * * * * * * * * * //
Create time

Create mesh for time = 0


SIMPLE: convergence criteria
    field p	 tolerance 1e-05
    field U	 tolerance 1e-05

Reading field p

Reading field U

Reading/calculating face flux field phi

Selecting incompressible transport model Newtonian
Selecting turbulence model type laminar
Selecting laminar stress model Stokes
No MRF models present

No finite volume options present


Starting time loop

fieldAverage fieldAverage:
    Starting averaging at time 0

forces forceCoeffs_object:
    Not including porosity effects
forceCoeffs forceCoeffs_object:
    Not including porosity effects
Time = 1

DILUPBiCG:  Solving for Ux, Initial residual = 1, Final residual = 3.1616605e-09, No Iterations 8
DILUPBiCG:  Solving for Uy, Initial residual = 1, Final residual = 3.9717527e-09, No Iterations 8
GAMG:  Solving for p, Initial residual = 1, Final residual = 0.0005740765, No Iterations 13
GAMG:  Solving for p, Initial residual = 0.046732969, Final residual = 3.153034e-05, No Iterations 10
GAMG:  Solving for p, Initial residual = 0.0093289797, Final residual = 7.8771353e-06, No Iterations 9
time step continuity errors : sum local = 3.5504704e-07, global = 1.6917633e-08, cumulative = 1.6917633e-08
ExecutionTime = 0.1 s  ClockTime = 0 s

forceCoeffs forceCoeffs_object write:
    Cm    = 4.2614446e-08
    Cd    = 44.882303
    Cl    = 1.532351e-05
    Cl(f) = 7.7043695e-06
    Cl(r) = 7.6191406e-06

fieldMinMax minmaxdomain write:
    min(p) = -11.497198 in cell 5850 at location (1.033408 0.040619337 1.3642833e-17)
    max(p) = 12.765213 in cell 7855 at location (-1.033408 -0.040619337 -1.5206571e-17)
    min(U) = (0.91406932 -0.12032165 -5.9205642e-18) in cell 4607 at location (1.2470702 0.83310466 7.104925e-18)
    max(U) = (1.1191108 0.01694019 1.7365225e-18) in cell 5703 at location (-0.049259813 1.252597 1.0286745e-17)

Time = 2

DILUPBiCG:  Solving for Ux, Initial residual = 0.48726368, Final residual = 3.028414e-09, No Iterations 8
DILUPBiCG:  Solving for Uy, Initial residual = 0.61603274, Final residual = 6.5491675e-09, No Iterations 9
GAMG:  Solving for p, Initial residual = 0.10697192, Final residual = 0.00010220684, No Iterations 12
GAMG:  Solving for p, Initial residual = 0.096166026, Final residual = 7.8019639e-05, No Iterations 10
GAMG:  Solving for p, Initial residual = 0.036349518, Final residual = 1.960955e-05, No Iterations 10
time step continuity errors : sum local = 6.0148452e-08, global = -1.3212099e-08, cumulative = 3.7055344e-09
ExecutionTime = 0.13 s  ClockTime = 0 s

forceCoeffs forceCoeffs_object write:
    Cm    = 2.3750755e-08
    Cd    = 31.52832
    Cl    = -2.896106e-06
    Cl(f) = -1.4243022e-06
    Cl(r) = -1.4718038e-06

fieldMinMax minmaxdomain write:
    min(p) = -7.6571834 in cell 6150 at location (1.0144308 -0.20179876 -1.4387383e-17)
    max(p) = 9.1654815 in cell 7783 at location (-1.033408 0.040619337 1.5208403e-17)
    min(U) = (0.6631351 -0.53263981 -4.5783111e-18) in cell 4607 at location (1.2470702 0.83310466 7.104925e-18)
    max(U) = (1.2463375 0.12581011 1.692959e-18) in cell 5110 at location (-0.2200932 1.8576508 6.2235303e-17)

Time = 3

DILUPBiCG:  Solving for Ux, Initial residual = 0.16817701, Final residual = 1.1761463e-09, No Iterations 8
DILUPBiCG:  Solving for Uy, Initial residual = 0.2259041, Final residual = 9.6878005e-10, No Iterations 9
GAMG:  Solving for p, Initial residual = 0.22961776, Final residual = 0.00016939514, No Iterations 13
GAMG:  Solving for p, Initial residual = 0.052203926, Final residual = 3.7322225e-05, No Iterations 10
GAMG:  Solving for p, Initial residual = 0.010559148, Final residual = 1.0001724e-05, No Iterations 9
time step continuity errors : sum local = 3.4917591e-07, global = -4.6364588e-08, cumulative = -4.2659054e-08
ExecutionTime = 0.16 s  ClockTime = 0 s

forceCoeffs forceCoeffs_object write:
    Cm    = -3.3819116e-08
    Cd    = -1.0501281
    Cl    = -2.3365418e-05
    Cl(f) = -1.1716528e-05
    Cl(r) = -1.164889e-05

fieldMinMax minmaxdomain write:
    min(p) = -2.4569932 in cell 7815 at location (-0.040619337 -1.033408 0)
    max(p) = 2.0458388 in cell 5650 at location (1.1768524 0.046273942 3.3047986e-17)
    min(U) = (0.21689337 -0.64902064 -1.0397433e-18) in cell 4896 at location (1.2854455 0.59256661 -7.8007e-18)
    max(U) = (1.5288303 0.3082078 1.1996344e-18) in cell 5902 at location (-0.13851888 1.1698852 -1.0477148e-17)

Time = 4

DILUPBiCG:  Solving for Ux, Initial residual = 0.030823953, Final residual = 2.1649452e-09, No Iterations 7
DILUPBiCG:  Solving for Uy, Initial residual = 0.052481736, Final residual = 1.5422418e-09, No Iterations 8
GAMG:  Solving for p, Initial residual = 0.2548596, Final residual = 0.00025105739, No Iterations 12
GAMG:  Solving for p, Initial residual = 0.037102369, Final residual = 2.4794771e-05, No Iterations 10
GAMG:  Solving for p, Initial residual = 0.0073680606, Final residual = 6.2540553e-06, No Iterations 9
time step continuity errors : sum local = 1.6654782e-07, global = 6.1978837e-09, cumulative = -3.646117e-08
ExecutionTime = 0.18 s  ClockTime = 0 s

forceCoeffs forceCoeffs_object write:
    Cm    = -5.4882682e-08
    Cd    = -17.85254
    Cl    = -1.2443553e-05
    Cl(f) = -6.2766593e-06
    Cl(r) = -6.1668939e-06

fieldMinMax minmaxdomain write:
    min(p) = -5.7319197 in cell 7990 at location (-1.0144308 -0.20179876 2.642783e-17)
    max(p) = 6.2853929 in cell 5850 at location (1.033408 0.040619337 1.3642833e-17)
    min(U) = (0.34303398 -0.71882924 -3.517679e-18) in cell 8172 at location (-0.97973335 -0.65457415 0)
    max(U) = (1.3091973 0.42366552 1.6567828e-18) in cell 7054 at location (0.46159383 -1.2511367 0)

Time = 5

DILUPBiCG:  Solving for Ux, Initial residual = 0.137661, Final residual = 4.4395442e-09, No Iterations 8
DILUPBiCG:  Solving for Uy, Initial residual = 0.25731711, Final residual = 9.2457571e-09, No Iterations 8
GAMG:  Solving for p, Initial residual = 0.15211456, Final residual = 9.5380408e-05, No Iterations 13
GAMG:  Solving for p, Initial residual = 0.089659791, Final residual = 7.0342229e-05, No Iterations 10
GAMG:  Solving for p, Initial residual = 0.019239948, Final residual = 1.76862e-05, No Iterations 9
time step continuity errors : sum local = 1.1239911e-07, global = 1.6470325e-08, cumulative = -1.9990845e-08
ExecutionTime = 0.21 s  ClockTime = 0 s

forceCoeffs forceCoeffs_object write:
    Cm    = -2.6744095e-08
    Cd    = -9.8911121
    Cl    = 1.4990215e-05
    Cl(f) = 7.4683636e-06
    Cl(r) = 7.5218518e-06

fieldMinMax minmaxdomain write:
    min(p) = -3.1637996 in cell 7378 at location (-0.93934113 0.43303818 -7.8244782e-19)
    max(p) = 3.2649652 in cell 5950 at location (1.033408 -0.040619337 -1.3642223e-17)
    min(U) = (0.55345773 -0.45440354 -2.2104731e-18) in cell 8172 at location (-0.97973335 -0.65457415 0)
    max(U) = (1.2046157 0.32669591 1.0726694e-18) in cell 6005 at location (-0.59256661 1.2854455 -2.4964291e-17)

Time = 6

DILUPBiCG:  Solving for Ux, Initial residual = 0.10097115, Final residual = 6.8100578e-09, No Iterations 7
DILUPBiCG:  Solving for Uy, Initial residual = 0.20494336, Final residual = 8.4461432e-10, No Iterations 9
GAMG:  Solving for p, Initial residual = 0.25613411, Final residual = 0.00018034923, No Iterations 13
GAMG:  Solving for p, Initial residual = 0.046721809, Final residual = 3.37083e-05, No Iterations 10
GAMG:  Solving for p, Initial residual = 0.0094741098, Final residual = 8.747318e-06, No Iterations 9
time step continuity errors : sum local = 1.9696481e-07, global = 2.61861e-08, cumulative = 6.195255e-09
ExecutionTime = 0.24 s  ClockTime = 0 s

forceCoeffs forceCoeffs_object write:
    Cm    = 1.0572021e-08
    Cd    = 6.5939931
    Cl    = 2.3005127e-05
    Cl(f) = 1.1513136e-05
    Cl(r) = 1.1491992e-05

fieldMinMax minmaxdomain write:
    min(p) = -1.8788934 in cell 5850 at location (1.033408 0.040619337 1.3642833e-17)
    max(p) = 1.9760478 in cell 7855 at location (-1.033408 -0.040619337 -1.5206571e-17)
    min(U) = (0.66866283 -0.29956265 -1.4954946e-18) in cell 7928 at location (-1.2110834 -0.55829114 0)
    max(U) = (1.1969547 0.22398021 3.1964535e-19) in cell 5806 at location (-0.51933836 1.4076281 0)

Time = 7

DILUPBiCG:  Solving for Ux, Initial residual = 0.057574202, Final residual = 4.9500919e-09, No Iterations 7
DILUPBiCG:  Solving for Uy, Initial residual = 0.11891839, Final residual = 1.2350758e-09, No Iterations 8
GAMG:  Solving for p, Initial residual = 0.28750658, Final residual = 0.00027519132, No Iterations 12
GAMG:  Solving for p, Initial residual = 0.035688063, Final residual = 2.223472e-05, No Iterations 10
GAMG:  Solving for p, Initial residual = 0.0071724304, Final residual = 5.7523728e-06, No Iterations 9
time step continuity errors : sum local = 7.1552704e-08, global = 1.5743167e-08, cumulative = 2.1938422e-08
ExecutionTime = 0.26 s  ClockTime = 0 s

forceCoeffs forceCoeffs_object write:
    Cm    = 1.3980366e-08
    Cd    = 13.485184
    Cl    = 2.8282695e-06
    Cl(f) = 1.4281151e-06
    Cl(r) = 1.4001544e-06

fieldMinMax minmaxdomain write:
    min(p) = -3.6835191 in cell 5950 at location (1.033408 -0.040619337 -1.3642223e-17)
    max(p) = 3.9991702 in cell 7855 at location (-1.033408 -0.040619337 -1.5206571e-17)
    min(U) = (0.65562628 -0.37243742 -2.7189667e-18) in cell 7861 at location (-1.3089366 -0.73292961 3.7056392e-17)
    max(U) = (1.2276057 0.084266837 5.0323745e-19) in cell 5010 at location (-0.073509572 1.8677584 -5.0905754e-17)

Time = 8

DILUPBiCG:  Solving for Ux, Initial residual = 0.091164774, Final residual = 9.0237656e-09, No Iterations 7
DILUPBiCG:  Solving for Uy, Initial residual = 0.15301145, Final residual = 1.7581777e-09, No Iterations 8
GAMG:  Solving for p, Initial residual = 0.21620292, Final residual = 0.0001634182, No Iterations 13
GAMG:  Solving for p, Initial residual = 0.045414734, Final residual = 3.6022643e-05, No Iterations 10
GAMG:  Solving for p, Initial residual = 0.010402649, Final residual = 8.8263536e-06, No Iterations 9
time step continuity errors : sum local = 8.3345588e-08, global = -1.3547452e-08, cumulative = 8.3909698e-09
ExecutionTime = 0.29 s  ClockTime = 0 s

forceCoeffs forceCoeffs_object write:
    Cm    = -2.1345766e-08
    Cd    = 7.7214698
    Cl    = -1.5908149e-05
    Cl(f) = -7.9754202e-06
    Cl(r) = -7.9327286e-06

fieldMinMax minmaxdomain write:
    min(p) = -1.8611352 in cell 6850 at location (0.75945224 -0.70200781 0)
    max(p) = 2.1479768 in cell 7783 at location (-1.033408 0.040619337 1.5208403e-17)
    min(U) = (0.29600331 -0.40181308 -7.2132834e-19) in cell 4995 at location (1.2110834 0.55829114 -2.7323031e-17)
    max(U) = (1.2662709 0.2037 8.1207812e-19) in cell 6658 at location (0.58145417 -1.5759659 1.2565509e-17)

Time = 9

DILUPBiCG:  Solving for Ux, Initial residual = 0.039865265, Final residual = 6.6447079e-09, No Iterations 7
DILUPBiCG:  Solving for Uy, Initial residual = 0.054470544, Final residual = 6.4764014e-09, No Iterations 7
GAMG:  Solving for p, Initial residual = 0.41064508, Final residual = 0.00033355948, No Iterations 13
GAMG:  Solving for p, Initial residual = 0.035857248, Final residual = 2.618997e-05, No Iterations 10
GAMG:  Solving for p, Initial residual = 0.00750482, Final residual = 6.5912338e-06, No Iterations 9
time step continuity errors : sum local = 1.0498278e-07, global = -1.6047144e-08, cumulative = -7.6561743e-09
ExecutionTime = 0.31 s  ClockTime = 0 s

forceCoeffs forceCoeffs_object write:
    Cm    = -4.8601854e-08
    Cd    = -1.1584141
    Cl    = -1.5039761e-05
    Cl(f) = -7.5684826e-06
    Cl(r) = -7.4712789e-06

fieldMinMax minmaxdomain write:
    min(p) = -1.9426146 in cell 7885 at location (-0.12158261 -1.0270928 0)
    max(p) = 1.2285562 in cell 5550 at location (1.252597 0.049259813 0)
    min(U) = (0.71112372 -0.5087149 -7.651815e-19) in cell 4610 at location (0.90424813 0.97829159 -3.6053913e-17)
    max(U) = (1.3544635 0.22744973 8.9819375e-19) in cell 5407 at location (-0.18668336 1.5759671 2.8257781e-17)

Time = 10

DILUPBiCG:  Solving for Ux, Initial residual = 0.026441247, Final residual = 2.8467827e-09, No Iterations 7
DILUPBiCG:  Solving for Uy, Initial residual = 0.054376504, Final residual = 9.2091566e-09, No Iterations 7
GAMG:  Solving for p, Initial residual = 0.17246664, Final residual = 0.00015088778, No Iterations 11
GAMG:  Solving for p, Initial residual = 0.030025138, Final residual = 1.5732936e-05, No Iterations 10
GAMG:  Solving for p, Initial residual = 0.0067970825, Final residual = 5.7365689e-06, No Iterations 9
time step continuity errors : sum local = 3.9266425e-08, global = 4.7537699e-09, cumulative = -2.9024044e-09
ExecutionTime = 0.34 s  ClockTime = 0 s

forceCoeffs forceCoeffs_object write:
    Cm    = -4.8178939e-08
    Cd    = -4.0978634
    Cl    = 2.1411142e-06
    Cl(f) = 1.0223782e-06
    Cl(r) = 1.1187361e-06

fieldMinMax minmaxdomain write:
    min(p) = -1.9904265 in cell 8135 at location (-0.43303818 -0.93934113 -7.8251546e-19)
    max(p) = 1.858982 in cell 5950 at location (1.033408 -0.040619337 -1.3642223e-17)
    min(U) = (0.36156159 -0.38314328 -1.2156251e-18) in cell 7859 at location (-1.2511367 -0.46159383 0)
    max(U) = (1.341105 0.18160006 7.0349003e-19) in cell 5407 at location (-0.18668336 1.5759671 2.8257781e-17)

Time = 11

DILUPBiCG:  Solving for Ux, Initial residual = 0.040993678, Final residual = 3.735988e-09, No Iterations 7
DILUPBiCG:  Solving for Uy, Initial residual = 0.084068923, Final residual = 6.9579996e-09, No Iterations 7
GAMG:  Solving for p, Initial residual = 0.19515439, Final residual = 0.00019138667, No Iterations 12
GAMG:  Solving for p, Initial residual = 0.048710259, Final residual = 3.993506e-05, No Iterations 10
GAMG:  Solving for p, Initial residual = 0.010900425, Final residual = 8.9142025e-06, No Iterations 9
time step continuity errors : sum local = 5.619088e-08, global = -6.7934389e-09, cumulative = -9.6958432e-09
ExecutionTime = 0.36 s  ClockTime = 0 s

forceCoeffs forceCoeffs_object write:
    Cm    = -1.7544911e-08
    Cd    = -0.55947364
    Cl    = 1.2486219e-05
    Cl(f) = 6.2255645e-06
    Cl(r) = 6.2606544e-06

fieldMinMax minmaxdomain write:
    min(p) = -0.81518318 in cell 6400 at location (-0.3580103 0.97041866 -5.5139009e-17)
    max(p) = 0.52785954 in cell 5950 at location (1.033408 -0.040619337 -1.3642223e-17)
    min(U) = (0.44869619 -0.34754283 -3.6836423e-19) in cell 7859 at location (-1.2511367 -0.46159383 0)
    max(U) = (1.1621701 0.17817531 4.2189425e-19) in cell 7055 at location (0.38424125 -1.3621202 -1.5608017e-17)

Time = 12

DILUPBiCG:  Solving for Ux, Initial residual = 0.018658615, Final residual = 3.8182722e-09, No Iterations 7
DILUPBiCG:  Solving for Uy, Initial residual = 0.038858823, Final residual = 3.2648012e-09, No Iterations 7
GAMG:  Solving for p, Initial residual = 0.33022868, Final residual = 0.00024051696, No Iterations 13
GAMG:  Solving for p, Initial residual = 0.039428753, Final residual = 2.8246728e-05, No Iterations 10
GAMG:  Solving for p, Initial residual = 0.0082099839, Final residual = 6.7111377e-06, No Iterations 9
time step continuity errors : sum local = 5.4143668e-08, global = -4.4012265e-09, cumulative = -1.409707e-08
ExecutionTime = 0.39 s  ClockTime = 0 s

forceCoeffs forceCoeffs_object write:
    Cm    = 6.2416077e-09
    Cd    = 3.9833619
    Cl    = 8.4933192e-06
    Cl(f) = 4.2529012e-06
    Cl(r) = 4.240418e-06

fieldMinMax minmaxdomain write:
    min(p) = -0.94499041 in cell 5750 at location (1.1038218 0.043395081 0)
    max(p) = 1.2887424 in cell 7855 at location (-1.033408 -0.040619337 -1.5206571e-17)
    min(U) = (0.50453949 -0.32696573 -7.8555192e-19) in cell 7788 at location (-1.3279551 -0.48993943 -1.7163502e-17)
    max(U) = (1.2484154 0.14990758 1.7176284e-19) in cell 5110 at location (-0.2200932 1.8576508 6.2235303e-17)

Time = 13

DILUPBiCG:  Solving for Ux, Initial residual = 0.026110001, Final residual = 3.3675437e-10, No Iterations 8
DILUPBiCG:  Solving for Uy, Initial residual = 0.053750923, Final residual = 3.8893014e-09, No Iterations 7
GAMG:  Solving for p, Initial residual = 0.29908755, Final residual = 0.00021651284, No Iterations 12
GAMG:  Solving for p, Initial residual = 0.066483119, Final residual = 5.9796755e-05, No Iterations 9
GAMG:  Solving for p, Initial residual = 0.016891236, Final residual = 9.8215171e-06, No Iterations 9
time step continuity errors : sum local = 1.8194056e-08, global = -2.7213386e-09, cumulative = -1.6818408e-08
ExecutionTime = 0.41 s  ClockTime = 0 s

forceCoeffs forceCoeffs_object write:
    Cm    = 3.165579e-09
    Cd    = 5.062977
    Cl    = -3.3046095e-06
    Cl(f) = -1.6491392e-06
    Cl(r) = -1.6554703e-06

fieldMinMax minmaxdomain write:
    min(p) = -1.1879329 in cell 5950 at location (1.033408 -0.040619337 -1.3642223e-17)
    max(p) = 1.5030942 in cell 7783 at location (-1.033408 0.040619337 1.5208403e-17)
    min(U) = (0.52327615 -0.3369407 -8.8123966e-19) in cell 4607 at location (1.2470702 0.83310466 7.104925e-18)
    max(U) = (1.2509313 0.12801419 3.87506e-19) in cell 4911 at location (-0.07750751 1.9691766 0)

Time = 14

DILUPBiCG:  Solving for Ux, Initial residual = 0.027296914, Final residual = 1.9033389e-09, No Iterations 7
DILUPBiCG:  Solving for Uy, Initial residual = 0.045673628, Final residual = 4.0815883e-09, No Iterations 7
GAMG:  Solving for p, Initial residual = 0.34206196, Final residual = 0.00025750538, No Iterations 13
GAMG:  Solving for p, Initial residual = 0.029129961, Final residual = 2.1992687e-05, No Iterations 10
GAMG:  Solving for p, Initial residual = 0.0066937292, Final residual = 4.7540872e-06, No Iterations 9
time step continuity errors : sum local = 3.1379437e-08, global = -4.9635721e-09, cumulative = -2.178198e-08
ExecutionTime = 0.44 s  ClockTime = 0 s

forceCoeffs forceCoeffs_object write:
    Cm    = -1.6848356e-08
    Cd    = 2.8764138
    Cl    = -8.6863881e-06
    Cl(f) = -4.3600424e-06
    Cl(r) = -4.3263457e-06

fieldMinMax minmaxdomain write:
    min(p) = -1.0711779 in cell 7505 at location (0.28077103 -0.99550033 1.4377222e-17)
    max(p) = 0.77194639 in cell 7783 at location (-1.033408 0.040619337 1.5208403e-17)
    min(U) = (0.58029715 -0.3761792 -3.2802199e-19) in cell 4513 at location (1.1773708 0.92799548 0)
    max(U) = (1.2659187 0.14425243 6.5988481e-19) in cell 4911 at location (-0.07750751 1.9691766 0)

Time = 15

DILUPBiCG:  Solving for Ux, Initial residual = 0.01226142, Final residual = 8.6868689e-09, No Iterations 6
DILUPBiCG:  Solving for Uy, Initial residual = 0.01653484, Final residual = 1.7627241e-09, No Iterations 7
GAMG:  Solving for p, Initial residual = 0.24649874, Final residual = 0.00020615852, No Iterations 12
GAMG:  Solving for p, Initial residual = 0.025900739, Final residual = 1.7158997e-05, No Iterations 10
GAMG:  Solving for p, Initial residual = 0.0056298765, Final residual = 4.0052217e-06, No Iterations 9
time step continuity errors : sum local = 2.5039128e-08, global = 1.935362e-09, cumulative = -1.9846618e-08
ExecutionTime = 0.49 s  ClockTime = 1 s

forceCoeffs forceCoeffs_object write:
    Cm    = -3.1058018e-08
    Cd    = 0.48818172
    Cl    = -4.3577183e-06
    Cl(f) = -2.2099172e-06
    Cl(r) = -2.1478011e-06

fieldMinMax minmaxdomain write:
    min(p) = -1.2918488 in cell 7815 at location (-0.040619337 -1.033408 0)
    max(p) = 0.40182192 in cell 5451 at location (1.4126352 -0.055568546 0)
    min(U) = (0.23572598 -0.30918249 -5.3547847e-19) in cell 7858 at location (-1.2074024 -0.34057562 0)
    max(U) = (1.2749005 0.14090846 6.7956074e-19) in cell 4911 at location (-0.07750751 1.9691766 0)

Time = 16

DILUPBiCG:  Solving for Ux, Initial residual = 0.011684249, Final residual = 1.4568486e-10, No Iterations 8
DILUPBiCG:  Solving for Uy, Initial residual = 0.027966062, Final residual = 3.3446114e-09, No Iterations 7
GAMG:  Solving for p, Initial residual = 0.15112881, Final residual = 0.00014871528, No Iterations 10
GAMG:  Solving for p, Initial residual = 0.045717039, Final residual = 3.4319875e-05, No Iterations 9
GAMG:  Solving for p, Initial residual = 0.012690866, Final residual = 7.8872898e-06, No Iterations 9
time step continuity errors : sum local = 1.3200819e-08, global = 1.3637581e-09, cumulative = -1.848286e-08
ExecutionTime = 0.52 s  ClockTime = 1 s

forceCoeffs forceCoeffs_object write:
    Cm    = -2.8989303e-08
    Cd    = 0.087191962
    Cl    = 2.5080683e-06
    Cl(f) = 1.2250448e-06
    Cl(r) = 1.2830234e-06

fieldMinMax minmaxdomain write:
    min(p) = -1.0738438 in cell 6100 at location (-0.12158261 1.0270928 0)
    max(p) = 0.42956522 in cell 5950 at location (1.033408 -0.040619337 -1.3642223e-17)
    min(U) = (0.26759714 -0.30320428 -4.9154074e-19) in cell 7858 at location (-1.2074024 -0.34057562 0)
    max(U) = (1.2738646 0.13312476 4.7888285e-19) in cell 4911 at location (-0.07750751 1.9691766 0)

Time = 17

DILUPBiCG:  Solving for Ux, Initial residual = 0.011598277, Final residual = 5.6372848e-09, No Iterations 7
DILUPBiCG:  Solving for Uy, Initial residual = 0.026968463, Final residual = 2.1042747e-09, No Iterations 7
GAMG:  Solving for p, Initial residual = 0.18670966, Final residual = 0.00011641864, No Iterations 12
GAMG:  Solving for p, Initial residual = 0.043530909, Final residual = 2.8378773e-05, No Iterations 10
GAMG:  Solving for p, Initial residual = 0.0096620203, Final residual = 6.079421e-06, No Iterations 9
time step continuity errors : sum local = 1.7654994e-08, global = 4.4069696e-10, cumulative = -1.8042163e-08
ExecutionTime = 0.54 s  ClockTime = 1 s

forceCoeffs forceCoeffs_object write:
    Cm    = -1.4391591e-08
    Cd    = 1.33587
    Cl    = 5.7603928e-06
    Cl(f) = 2.8658048e-06
    Cl(r) = 2.894588e-06

fieldMinMax minmaxdomain write:
    min(p) = -0.63427439 in cell 6000 at location (-0.040619337 1.033408 0)
    max(p) = 0.5178164 in cell 7855 at location (-1.033408 -0.040619337 -1.5206571e-17)
    min(U) = (0.46805708 -0.3502052 -4.087994e-19) in cell 7788 at location (-1.3279551 -0.48993943 -1.7163502e-17)
    max(U) = (1.2585421 0.086545074 3.8217336e-19) in cell 4715 at location (0.081653961 2.0743633 2.6339295e-17)

Time = 18

DILUPBiCG:  Solving for Ux, Initial residual = 0.0091965123, Final residual = 5.02649e-09, No Iterations 6
DILUPBiCG:  Solving for Uy, Initial residual = 0.020546332, Final residual = 2.0354271e-09, No Iterations 7
GAMG:  Solving for p, Initial residual = 0.2775085, Final residual = 0.00021169552, No Iterations 14
GAMG:  Solving for p, Initial residual = 0.045501077, Final residual = 2.6550753e-05, No Iterations 10
GAMG:  Solving for p, Initial residual = 0.010044173, Final residual = 6.5902401e-06, No Iterations 9
time step continuity errors : sum local = 1.3598297e-08, global = 2.8628668e-09, cumulative = -1.5179297e-08
ExecutionTime = 0.57 s  ClockTime = 1 s

forceCoeffs forceCoeffs_object write:
    Cm    = -1.1766978e-09
    Cd    = 2.5470522
    Cl    = 2.4427256e-06
    Cl(f) = 1.2201861e-06
    Cl(r) = 1.2225395e-06

fieldMinMax minmaxdomain write:
    min(p) = -0.49325663 in cell 5700 at location (0.20179876 1.0144308 4.2381527e-17)
    max(p) = 0.84886998 in cell 7855 at location (-1.033408 -0.040619337 -1.5206571e-17)
    min(U) = (0.45927673 -0.35254295 -5.5260245e-19) in cell 7788 at location (-1.3279551 -0.48993943 -1.7163502e-17)
    max(U) = (1.2644362 0.15164309 3.0817503e-19) in cell 4911 at location (-0.07750751 1.9691766 0)

Time = 19

DILUPBiCG:  Solving for Ux, Initial residual = 0.012205753, Final residual = 7.6276489e-10, No Iterations 7
DILUPBiCG:  Solving for Uy, Initial residual = 0.023291379, Final residual = 3.8458842e-09, No Iterations 7
GAMG:  Solving for p, Initial residual = 0.48332255, Final residual = 0.00030920558, No Iterations 11
GAMG:  Solving for p, Initial residual = 0.029693537, Final residual = 2.126099e-05, No Iterations 10
GAMG:  Solving for p, Initial residual = 0.0068910238, Final residual = 5.3815898e-06, No Iterations 9
time step continuity errors : sum local = 1.2010942e-08, global = -8.8699101e-10, cumulative = -1.6066288e-08
ExecutionTime = 0.59 s  ClockTime = 1 s

forceCoeffs forceCoeffs_object write:
    Cm    = -1.4860774e-09
    Cd    = 2.6490776
    Cl    = -1.7013251e-06
    Cl(f) = -8.5214863e-07
    Cl(r) = -8.4917647e-07

fieldMinMax minmaxdomain write:
    min(p) = -0.68801679 in cell 7505 at location (0.28077103 -0.99550033 1.4377222e-17)
    max(p) = 0.81106751 in cell 7783 at location (-1.033408 0.040619337 1.5208403e-17)
    min(U) = (0.44051974 -0.35873818 -5.2288138e-19) in cell 7788 at location (-1.3279551 -0.48993943 -1.7163502e-17)
    max(U) = (1.266775 0.16713841 4.5344575e-19) in cell 4911 at location (-0.07750751 1.9691766 0)

Time = 20

DILUPBiCG:  Solving for Ux, Initial residual = 0.010667476, Final residual = 9.4757645e-09, No Iterations 6
DILUPBiCG:  Solving for Uy, Initial residual = 0.014331618, Final residual = 2.031119e-09, No Iterations 7
GAMG:  Solving for p, Initial residual = 0.25861072, Final residual = 0.00016996585, No Iterations 13
GAMG:  Solving for p, Initial residual = 0.019306529, Final residual = 1.2427188e-05, No Iterations 10
GAMG:  Solving for p, Initial residual = 0.0044396274, Final residual = 2.8074145e-06, No Iterations 9
time step continuity errors : sum local = 1.0459343e-08, global = -1.3473238e-09, cumulative = -1.7413611e-08
ExecutionTime = 0.62 s  ClockTime = 1 s

    Reading/initialising field UMean
    Reading/initialising field pMean
    Reading/initialising field UPrime2Mean
    Reading/initialising field pPrime2Mean
fieldAverage fieldAverage write:
    Calculating averages

forceCoeffs forceCoeffs_object write:
    Cm    = -1.023526e-08
    Cd    = 1.9235983
    Cl    = -3.5207873e-06
    Cl(f) = -1.7706289e-06
    Cl(r) = -1.7501584e-06

fieldMinMax minmaxdomain write:
    min(p) = -0.8910076 in cell 7666 at location (0.12158261 -1.0270928 -2.7242997e-17)
    max(p) = 0.56880832 in cell 7783 at location (-1.033408 0.040619337 1.5208403e-17)
    min(U) = (0.43303227 -0.36232681 -4.089257e-19) in cell 7788 at location (-1.3279551 -0.48993943 -1.7163502e-17)
    max(U) = (1.2725572 0.17426523 5.6221249e-19) in cell 4911 at location (-0.07750751 1.9691766 0)

Time = 21

DILUPBiCG:  Solving for Ux, Initial residual = 0.0069572497, Final residual = 4.3453765e-09, No Iterations 6
DILUPBiCG:  Solving for Uy, Initial residual = 0.0099622569, Final residual = 9.9482068e-09, No Iterations 6
GAMG:  Solving for p, Initial residual = 0.12094232, Final residual = 0.00010787838, No Iterations 12
GAMG:  Solving for p, Initial residual = 0.017287073, Final residual = 7.9114215e-06, No Iterations 10
GAMG:  Solving for p, Initial residual = 0.0040550624, Final residual = 2.2874508e-06, No Iterations 9
time step continuity errors : sum local = 6.163712e-09, global = -1.3792068e-09, cumulative = -1.8792818e-08
ExecutionTime = 0.65 s  ClockTime = 1 s

fieldAverage fieldAverage write:
    Calculating averages

forceCoeffs forceCoeffs_object write:
    Cm    = -1.8143775e-08
    Cd    = 1.290286
    Cl    = -1.2208759e-06
    Cl(f) = -6.285817e-07
    Cl(r) = -5.9229416e-07

fieldMinMax minmaxdomain write:
    min(p) = -0.93333516 in cell 7815 at location (-0.040619337 -1.033408 0)
    max(p) = 0.41716188 in cell 7783 at location (-1.033408 0.040619337 1.5208403e-17)
    min(U) = (0.44049552 -0.36154598 -3.4687515e-19) in cell 7788 at location (-1.3279551 -0.48993943 -1.7163502e-17)
    max(U) = (1.2771375 0.1746095 5.3758035e-19) in cell 4911 at location (-0.07750751 1.9691766 0)

Time = 22

DILUPBiCG:  Solving for Ux, Initial residual = 0.0060721775, Final residual = 7.2491033e-10, No Iterations 7
DILUPBiCG:  Solving for Uy, Initial residual = 0.013789639, Final residual = 8.3057207e-09, No Iterations 6
GAMG:  Solving for p, Initial residual = 0.1189353, Final residual = 5.8633494e-05, No Iterations 11
GAMG:  Solving for p, Initial residual = 0.038707432, Final residual = 2.7466361e-05, No Iterations 10
GAMG:  Solving for p, Initial residual = 0.010500526, Final residual = 8.7948411e-06, No Iterations 9
time step continuity errors : sum local = 8.1616663e-09, global = 2.9609628e-10, cumulative = -1.8496722e-08
ExecutionTime = 0.67 s  ClockTime = 1 s

fieldAverage fieldAverage write:
    Calculating averages

forceCoeffs forceCoeffs_object write:
    Cm    = -1.7852774e-08
    Cd    = 1.2747288
    Cl    = 1.2229305e-06
    Cl(f) = 5.9361249e-07
    Cl(r) = 6.2931804e-07

fieldMinMax minmaxdomain write:
    min(p) = -0.80466454 in cell 6000 at location (-0.040619337 1.033408 0)
    max(p) = 0.46620338 in cell 7783 at location (-1.033408 0.040619337 1.5208403e-17)
    min(U) = (0.45136232 -0.35922005 -3.7685321e-19) in cell 7788 at location (-1.3279551 -0.48993943 -1.7163502e-17)
    max(U) = (1.2731743 0.12460203 5.1583042e-19) in cell 4715 at location (0.081653961 2.0743633 2.6339295e-17)

Time = 23

DILUPBiCG:  Solving for Ux, Initial residual = 0.0060394702, Final residual = 3.0568194e-09, No Iterations 6
DILUPBiCG:  Solving for Uy, Initial residual = 0.013259241, Final residual = 9.4510859e-09, No Iterations 6
GAMG:  Solving for p, Initial residual = 0.12207131, Final residual = 0.00010625673, No Iterations 13
GAMG:  Solving for p, Initial residual = 0.057091596, Final residual = 3.6711205e-05, No Iterations 10
GAMG:  Solving for p, Initial residual = 0.012567077, Final residual = 8.0353082e-06, No Iterations 9
time step continuity errors : sum local = 6.7487772e-09, global = -5.9699247e-10, cumulative = -1.9093714e-08
ExecutionTime = 0.7 s  ClockTime = 1 s

fieldAverage fieldAverage write:
    Calculating averages

forceCoeffs forceCoeffs_object write:
    Cm    = -1.1301269e-08
    Cd    = 1.679452
    Cl    = 2.2028513e-06
    Cl(f) = 1.0901244e-06
    Cl(r) = 1.1127269e-06

fieldMinMax minmaxdomain write:
    min(p) = -0.65523075 in cell 6000 at location (-0.040619337 1.033408 0)
    max(p) = 0.60420275 in cell 7855 at location (-1.033408 -0.040619337 -1.5206571e-17)
    min(U) = (0.4546681 -0.35847102 -4.3913912e-19) in cell 7788 at location (-1.3279551 -0.48993943 -1.7163502e-17)
    max(U) = (1.2720291 0.13160968 4.2979172e-19) in cell 4715 at location (0.081653961 2.0743633 2.6339295e-17)

Time = 24

DILUPBiCG:  Solving for Ux, Initial residual = 0.006618969, Final residual = 3.8083209e-09, No Iterations 6
DILUPBiCG:  Solving for Uy, Initial residual = 0.013056804, Final residual = 9.5500978e-09, No Iterations 6
GAMG:  Solving for p, Initial residual = 0.13453182, Final residual = 9.8301023e-05, No Iterations 14
GAMG:  Solving for p, Initial residual = 0.034232876, Final residual = 3.2271079e-05, No Iterations 9
GAMG:  Solving for p, Initial residual = 0.007746449, Final residual = 5.867593e-06, No Iterations 9
time step continuity errors : sum local = 6.254228e-09, global = -1.1122876e-09, cumulative = -2.0206002e-08
ExecutionTime = 0.72 s  ClockTime = 1 s

fieldAverage fieldAverage write:
    Calculating averages

forceCoeffs forceCoeffs_object write:
    Cm    = -5.0507099e-09
    Cd    = 2.0042157
    Cl    = 8.5451016e-07
    Cl(f) = 4.2220437e-07
    Cl(r) = 4.3230579e-07

fieldMinMax minmaxdomain write:
    min(p) = -0.63141474 in cell 5900 at location (0.040619337 1.033408 0)
    max(p) = 0.67652902 in cell 7855 at location (-1.033408 -0.040619337 -1.5206571e-17)
    min(U) = (0.4500754 -0.35972977 -4.6447776e-19) in cell 7788 at location (-1.3279551 -0.48993943 -1.7163502e-17)
    max(U) = (1.2717224 0.14112417 4.4063141e-19) in cell 4715 at location (0.081653961 2.0743633 2.6339295e-17)

Time = 25

DILUPBiCG:  Solving for Ux, Initial residual = 0.0072319725, Final residual = 6.9118803e-10, No Iterations 7
DILUPBiCG:  Solving for Uy, Initial residual = 0.011288276, Final residual = 8.8953094e-09, No Iterations 6
GAMG:  Solving for p, Initial residual = 0.13988477, Final residual = 0.00012223862, No Iterations 11
GAMG:  Solving for p, Initial residual = 0.014496305, Final residual = 1.2511889e-05, No Iterations 10
GAMG:  Solving for p, Initial residual = 0.0033188418, Final residual = 1.8079259e-06, No Iterations 10
time step continuity errors : sum local = 3.8182156e-09, global = 9.3052458e-10, cumulative = -1.9275477e-08
ExecutionTime = 0.75 s  ClockTime = 1 s

fieldAverage fieldAverage write:
    Calculating averages

forceCoeffs forceCoeffs_object write:
    Cm    = -4.736425e-09
    Cd    = 1.9886563
    Cl    = -5.3094024e-07
    Cl(f) = -2.7020655e-07
    Cl(r) = -2.607337e-07

fieldMinMax minmaxdomain write:
    min(p) = -0.70914607 in cell 7666 at location (0.12158261 -1.0270928 -2.7242997e-17)
    max(p) = 0.64176535 in cell 7855 at location (-1.033408 -0.040619337 -1.5206571e-17)
    min(U) = (0.44467991 -0.36132729 -4.4189427e-19) in cell 7788 at location (-1.3279551 -0.48993943 -1.7163502e-17)
    max(U) = (1.2734967 0.14880317 5.0756471e-19) in cell 4715 at location (0.081653961 2.0743633 2.6339295e-17)

Time = 26

DILUPBiCG:  Solving for Ux, Initial residual = 0.0064058556, Final residual = 4.3218709e-09, No Iterations 6
DILUPBiCG:  Solving for Uy, Initial residual = 0.0080472405, Final residual = 5.906743e-09, No Iterations 6
GAMG:  Solving for p, Initial residual = 0.087965129, Final residual = 7.9593526e-05, No Iterations 12
GAMG:  Solving for p, Initial residual = 0.010868242, Final residual = 5.8874498e-06, No Iterations 10
GAMG:  Solving for p, Initial residual = 0.0025322066, Final residual = 2.447212e-06, No Iterations 8
time step continuity errors : sum local = 5.6444574e-09, global = -2.907321e-10, cumulative = -1.956621e-08
ExecutionTime = 0.77 s  ClockTime = 1 s

fieldAverage fieldAverage write:
    Calculating averages

forceCoeffs forceCoeffs_object write:
    Cm    = -8.7519357e-09
    Cd    = 1.759768
    Cl    = -1.2523929e-06
    Cl(f) = -6.3494838e-07
    Cl(r) = -6.1744451e-07

fieldMinMax minmaxdomain write:
    min(p) = -0.77713821 in cell 7742 at location (0.040619337 -1.033408 0)
    max(p) = 0.57032017 in cell 7783 at location (-1.033408 0.040619337 1.5208403e-17)
    min(U) = (0.44394434 -0.3618134 -4.0882072e-19) in cell 7788 at location (-1.3279551 -0.48993943 -1.7163502e-17)
    max(U) = (1.276326 0.15299471 5.4714856e-19) in cell 4715 at location (0.081653961 2.0743633 2.6339295e-17)

Time = 27

DILUPBiCG:  Solving for Ux, Initial residual = 0.0053659004, Final residual = 2.7229955e-09, No Iterations 6
DILUPBiCG:  Solving for Uy, Initial residual = 0.0080374984, Final residual = 8.379533e-09, No Iterations 6
GAMG:  Solving for p, Initial residual = 0.06901458, Final residual = 6.4389194e-05, No Iterations 11
GAMG:  Solving for p, Initial residual = 0.0095825344, Final residual = 6.09573e-06, No Iterations 9
GAMG:  Solving for p, Initial residual = 0.002553011, Final residual = 1.4553812e-06, No Iterations 9
time step continuity errors : sum local = 2.4806128e-09, global = 1.1086776e-11, cumulative = -1.9555123e-08
ExecutionTime = 0.79 s  ClockTime = 1 s

fieldAverage fieldAverage write:
    Calculating averages

forceCoeffs forceCoeffs_object write:
    Cm    = -1.2809972e-08
    Cd    = 1.5898024
    Cl    = -6.3341879e-07
    Cl(f) = -3.2951937e-07
    Cl(r) = -3.0389942e-07

fieldMinMax minmaxdomain write:
    min(p) = -0.77070416 in cell 7742 at location (0.040619337 -1.033408 0)
    max(p) = 0.54153407 in cell 7783 at location (-1.033408 0.040619337 1.5208403e-17)
    min(U) = (0.44714678 -0.36123194 -3.9962318e-19) in cell 7788 at location (-1.3279551 -0.48993943 -1.7163502e-17)
    max(U) = (1.278345 0.15559757 5.2462618e-19) in cell 4715 at location (0.081653961 2.0743633 2.6339295e-17)

Time = 28

DILUPBiCG:  Solving for Ux, Initial residual = 0.0048663315, Final residual = 6.776616e-09, No Iterations 6
DILUPBiCG:  Solving for Uy, Initial residual = 0.009090539, Final residual = 7.9999761e-09, No Iterations 6
GAMG:  Solving for p, Initial residual = 0.070274787, Final residual = 6.0184151e-05, No Iterations 11
GAMG:  Solving for p, Initial residual = 0.015290247, Final residual = 1.0678127e-05, No Iterations 11
GAMG:  Solving for p, Initial residual = 0.0036255737, Final residual = 1.7731394e-06, No Iterations 10
time step continuity errors : sum local = 2.0235754e-09, global = -8.745671e-11, cumulative = -1.9642579e-08
ExecutionTime = 0.82 s  ClockTime = 1 s

fieldAverage fieldAverage write:
    Calculating averages

forceCoeffs forceCoeffs_object write:
    Cm    = -1.3831688e-08
    Cd    = 1.6086793
    Cl    = 4.5646533e-07
    Cl(f) = 2.1440098e-07
    Cl(r) = 2.4206435e-07

fieldMinMax minmaxdomain write:
    min(p) = -0.71201724 in cell 7815 at location (-0.040619337 -1.033408 0)
    max(p) = 0.56835158 in cell 7783 at location (-1.033408 0.040619337 1.5208403e-17)
    min(U) = (0.23933156 -0.3544423 -3.6462606e-19) in cell 8171 at location (-0.96417992 -0.53993983 1.2345237e-17)
    max(U) = (1.2786625 0.15926675 4.7358083e-19) in cell 4715 at location (0.081653961 2.0743633 2.6339295e-17)

Time = 29

DILUPBiCG:  Solving for Ux, Initial residual = 0.0048558901, Final residual = 2.6653231e-09, No Iterations 6
DILUPBiCG:  Solving for Uy, Initial residual = 0.0092860886, Final residual = 8.7864582e-09, No Iterations 6
GAMG:  Solving for p, Initial residual = 0.063048317, Final residual = 4.3278964e-05, No Iterations 14
GAMG:  Solving for p, Initial residual = 0.016686776, Final residual = 8.7248553e-06, No Iterations 10
GAMG:  Solving for p, Initial residual = 0.0037428824, Final residual = 2.3154036e-06, No Iterations 9
time step continuity errors : sum local = 2.6474328e-09, global = 2.5811531e-10, cumulative = -1.9384464e-08
ExecutionTime = 0.84 s  ClockTime = 1 s

fieldAverage fieldAverage write:
    Calculating averages

forceCoeffs forceCoeffs_object write:
    Cm    = -1.0895213e-08
    Cd    = 1.737562
    Cl    = 9.8245397e-07
    Cl(f) = 4.8033177e-07
    Cl(r) = 5.021222e-07

fieldMinMax minmaxdomain write:
    min(p) = -0.66538088 in cell 5900 at location (0.040619337 1.033408 0)
    max(p) = 0.60855985 in cell 7855 at location (-1.033408 -0.040619337 -1.5206571e-17)
    min(U) = (0.23910251 -0.35425806 -3.5874044e-19) in cell 8171 at location (-0.96417992 -0.53993983 1.2345237e-17)
    max(U) = (1.2778928 0.16467232 4.4515807e-19) in cell 4715 at location (0.081653961 2.0743633 2.6339295e-17)

Time = 30

DILUPBiCG:  Solving for Ux, Initial residual = 0.0052662803, Final residual = 4.7251673e-09, No Iterations 6
DILUPBiCG:  Solving for Uy, Initial residual = 0.0087409768, Final residual = 7.309528e-09, No Iterations 6
GAMG:  Solving for p, Initial residual = 0.061788455, Final residual = 5.8451604e-05, No Iterations 13
GAMG:  Solving for p, Initial residual = 0.010580483, Final residual = 9.0070283e-06, No Iterations 9
GAMG:  Solving for p, Initial residual = 0.0025969923, Final residual = 2.2776388e-06, No Iterations 9
time step continuity errors : sum local = 3.5343603e-09, global = 8.3742846e-10, cumulative = -1.8547036e-08
ExecutionTime = 0.9 s  ClockTime = 1 s

fieldAverage fieldAverage write:
    Calculating averages

    Writing average fields


forceCoeffs forceCoeffs_object write:
    Cm    = -7.5567924e-09
    Cd    = 1.8272276
    Cl    = 6.3247549e-07
    Cl(f) = 3.0868095e-07
    Cl(r) = 3.2379454e-07

fieldMinMax minmaxdomain write:
    min(p) = -0.66452568 in cell 5900 at location (0.040619337 1.033408 0)
    max(p) = 0.62226527 in cell 7855 at location (-1.033408 -0.040619337 -1.5206571e-17)
    min(U) = (0.23809938 -0.35429167 -3.5934761e-19) in cell 8171 at location (-0.96417992 -0.53993983 1.2345237e-17)
    max(U) = (1.2772492 0.17041923 4.5491294e-19) in cell 4715 at location (0.081653961 2.0743633 2.6339295e-17)

Time = 31

DILUPBiCG:  Solving for Ux, Initial residual = 0.0053651546, Final residual = 8.6000154e-09, No Iterations 6
DILUPBiCG:  Solving for Uy, Initial residual = 0.0073858397, Final residual = 8.8297177e-09, No Iterations 6
GAMG:  Solving for p, Initial residual = 0.055223884, Final residual = 4.5991873e-05, No Iterations 11
GAMG:  Solving for p, Initial residual = 0.0073555445, Final residual = 5.0399102e-06, No Iterations 10
GAMG:  Solving for p, Initial residual = 0.0016631588, Final residual = 1.347469e-06, No Iterations 10
time step continuity errors : sum local = 2.4989744e-09, global = 5.5910112e-10, cumulative = -1.7987935e-08
ExecutionTime = 0.97 s  ClockTime = 1 s

fieldAverage fieldAverage write:
    Calculating averages

forceCoeffs forceCoeffs_object write:
    Cm    = -6.5441283e-09
    Cd    = 1.8120385
    Cl    = -5.6602683e-10
    Cl(f) = -6.8271417e-09
    Cl(r) = 6.2611148e-09

fieldMinMax minmaxdomain write:
    min(p) = -0.690292 in cell 5900 at location (0.040619337 1.033408 0)
    max(p) = 0.60729191 in cell 7855 at location (-1.033408 -0.040619337 -1.5206571e-17)
    min(U) = (0.23742803 -0.35436794 -3.634069e-19) in cell 8171 at location (-0.96417992 -0.53993983 1.2345237e-17)
    max(U) = (1.2773402 0.17495494 4.7825318e-19) in cell 4715 at location (0.081653961 2.0743633 2.6339295e-17)

Time = 32

DILUPBiCG:  Solving for Ux, Initial residual = 0.0049826637, Final residual = 3.5851663e-09, No Iterations 6
DILUPBiCG:  Solving for Uy, Initial residual = 0.0064173964, Final residual = 5.2492782e-09, No Iterations 6
GAMG:  Solving for p, Initial residual = 0.041464746, Final residual = 3.8455876e-05, No Iterations 12
GAMG:  Solving for p, Initial residual = 0.004835743, Final residual = 3.3226983e-06, No Iterations 9
GAMG:  Solving for p, Initial residual = 0.0012210758, Final residual = 1.1988684e-06, No Iterations 9
time step continuity errors : sum local = 2.1443574e-09, global = -9.8766628e-11, cumulative = -1.8086701e-08
ExecutionTime = 0.99 s  ClockTime = 1 s

fieldAverage fieldAverage write:
    Calculating averages

forceCoeffs forceCoeffs_object write:
    Cm    = -8.0832398e-09
    Cd    = 1.7398563
    Cl    = -4.2945647e-07
    Cl(f) = -2.2281147e-07
    Cl(r) = -2.0664499e-07

fieldMinMax minmaxdomain write:
    min(p) = -0.70514461 in cell 7742 at location (0.040619337 -1.033408 0)
    max(p) = 0.58807195 in cell 7783 at location (-1.033408 0.040619337 1.5208403e-17)
    min(U) = (0.23750528 -0.35429206 -3.6552899e-19) in cell 8171 at location (-0.96417992 -0.53993983 1.2345237e-17)
    max(U) = (1.2910103 0.10016395 2.9869711e-19) in cell 4522 at location (0.40588725 2.039092 -2.6265791e-17)

Time = 33

DILUPBiCG:  Solving for Ux, Initial residual = 0.0045754094, Final residual = 2.5943762e-09, No Iterations 6
DILUPBiCG:  Solving for Uy, Initial residual = 0.0068741803, Final residual = 6.6108684e-09, No Iterations 6
GAMG:  Solving for p, Initial residual = 0.039425252, Final residual = 2.8923923e-05, No Iterations 11
GAMG:  Solving for p, Initial residual = 0.0046283933, Final residual = 3.7055892e-06, No Iterations 12
GAMG:  Solving for p, Initial residual = 0.0013663625, Final residual = 7.8381542e-07, No Iterations 10
time step continuity errors : sum local = 1.2057339e-09, global = 9.0718493e-11, cumulative = -1.7995983e-08
ExecutionTime = 1.01 s  ClockTime = 1 s

fieldAverage fieldAverage write:
    Calculating averages

forceCoeffs forceCoeffs_object write:
    Cm    = -1.0187012e-08
    Cd    = 1.6928908
    Cl    = -2.5648768e-07
    Cl(f) = -1.3843085e-07
    Cl(r) = -1.1805683e-07

fieldMinMax minmaxdomain write:
    min(p) = -0.69351728 in cell 7742 at location (0.040619337 -1.033408 0)
    max(p) = 0.58430206 in cell 7783 at location (-1.033408 0.040619337 1.5208403e-17)
    min(U) = (0.23788091 -0.35403795 -3.6372323e-19) in cell 8171 at location (-0.96417992 -0.53993983 1.2345237e-17)
    max(U) = (1.2916416 0.10407409 2.8604157e-19) in cell 4522 at location (0.40588725 2.039092 -2.6265791e-17)

Time = 34

DILUPBiCG:  Solving for Ux, Initial residual = 0.0043628412, Final residual = 2.5635231e-09, No Iterations 6
DILUPBiCG:  Solving for Uy, Initial residual = 0.0072817259, Final residual = 7.2867668e-09, No Iterations 6
GAMG:  Solving for p, Initial residual = 0.03672363, Final residual = 3.3033703e-05, No Iterations 12
GAMG:  Solving for p, Initial residual = 0.006048732, Final residual = 4.9993825e-06, No Iterations 11
GAMG:  Solving for p, Initial residual = 0.0014077766, Final residual = 1.2696319e-06, No Iterations 9
time step continuity errors : sum local = 1.7863796e-09, global = -1.3902533e-10, cumulative = -1.8135008e-08
ExecutionTime = 1.04 s  ClockTime = 1 s

fieldAverage fieldAverage write:
    Calculating averages

forceCoeffs forceCoeffs_object write:
    Cm    = -1.0963022e-08
    Cd    = 1.7043764
    Cl    = 1.5953429e-07
    Cl(f) = 6.8804125e-08
    Cl(r) = 9.073017e-08

fieldMinMax minmaxdomain write:
    min(p) = -0.66921823 in cell 7742 at location (0.040619337 -1.033408 0)
    max(p) = 0.59479943 in cell 7783 at location (-1.033408 0.040619337 1.5208403e-17)
    min(U) = (0.23793552 -0.35370912 -3.6021941e-19) in cell 8171 at location (-0.96417992 -0.53993983 1.2345237e-17)
    max(U) = (1.2914799 0.10867371 2.715804e-19) in cell 4522 at location (0.40588725 2.039092 -2.6265791e-17)

Time = 35

DILUPBiCG:  Solving for Ux, Initial residual = 0.0043861918, Final residual = 2.0306012e-09, No Iterations 6
DILUPBiCG:  Solving for Uy, Initial residual = 0.0070839019, Final residual = 7.3562276e-09, No Iterations 6
GAMG:  Solving for p, Initial residual = 0.034024541, Final residual = 2.2903093e-05, No Iterations 14
GAMG:  Solving for p, Initial residual = 0.0061518545, Final residual = 3.2678691e-06, No Iterations 10
GAMG:  Solving for p, Initial residual = 0.0014770097, Final residual = 1.3616766e-06, No Iterations 9
time step continuity errors : sum local = 2.0325641e-09, global = 1.375309e-10, cumulative = -1.7997477e-08
ExecutionTime = 1.07 s  ClockTime = 1 s

fieldAverage fieldAverage write:
    Calculating averages

forceCoeffs forceCoeffs_object write:
    Cm    = -1.0114033e-08
    Cd    = 1.7453317
    Cl    = 4.7693775e-07
    Cl(f) = 2.2835484e-07
    Cl(r) = 2.4858291e-07

fieldMinMax minmaxdomain write:
    min(p) = -0.65339693 in cell 5900 at location (0.040619337 1.033408 0)
    max(p) = 0.60584438 in cell 7855 at location (-1.033408 -0.040619337 -1.5206571e-17)
    min(U) = (0.23751888 -0.35339668 -3.5811055e-19) in cell 8171 at location (-0.96417992 -0.53993983 1.2345237e-17)
    max(U) = (1.2909562 0.11376191 2.6610493e-19) in cell 4522 at location (0.40588725 2.039092 -2.6265791e-17)

Time = 36

DILUPBiCG:  Solving for Ux, Initial residual = 0.0044921128, Final residual = 3.0975008e-09, No Iterations 6
DILUPBiCG:  Solving for Uy, Initial residual = 0.0064303301, Final residual = 1.2238154e-09, No Iterations 7
GAMG:  Solving for p, Initial residual = 0.031179605, Final residual = 2.3937735e-05, No Iterations 13
GAMG:  Solving for p, Initial residual = 0.0051503611, Final residual = 4.4430812e-06, No Iterations 9
GAMG:  Solving for p, Initial residual = 0.0012529202, Final residual = 9.5875066e-07, No Iterations 10
time step continuity errors : sum local = 1.5845644e-09, global = -2.9390539e-10, cumulative = -1.8291383e-08
ExecutionTime = 1.09 s  ClockTime = 1 s

fieldAverage fieldAverage write:
    Calculating averages

forceCoeffs forceCoeffs_object write:
    Cm    = -8.701736e-09
    Cd    = 1.7701066
    Cl    = 4.1420729e-07
    Cl(f) = 1.9840191e-07
    Cl(r) = 2.1580538e-07

fieldMinMax minmaxdomain write:
    min(p) = -0.65275512 in cell 5900 at location (0.040619337 1.033408 0)
    max(p) = 0.60792753 in cell 7855 at location (-1.033408 -0.040619337 -1.5206571e-17)
    min(U) = (0.23694663 -0.35310407 -3.5822778e-19) in cell 8171 at location (-0.96417992 -0.53993983 1.2345237e-17)
    max(U) = (1.2905247 0.11855386 2.6904118e-19) in cell 4522 at location (0.40588725 2.039092 -2.6265791e-17)

Time = 37

DILUPBiCG:  Solving for Ux, Initial residual = 0.0044284537, Final residual = 8.0236183e-10, No Iterations 7
DILUPBiCG:  Solving for Uy, Initial residual = 0.0057637889, Final residual = 1.1773457e-09, No Iterations 7
GAMG:  Solving for p, Initial residual = 0.026341677, Final residual = 2.354823e-05, No Iterations 10
GAMG:  Solving for p, Initial residual = 0.003828436, Final residual = 2.3768837e-06, No Iterations 10
GAMG:  Solving for p, Initial residual = 0.00088193884, Final residual = 9.7787375e-07, No Iterations 10
time step continuity errors : sum local = 1.6744972e-09, global = -2.6828295e-10, cumulative = -1.8559665e-08
ExecutionTime = 1.11 s  ClockTime = 1 s

fieldAverage fieldAverage write:
    Calculating averages

forceCoeffs forceCoeffs_object write:
    Cm    = -8.0921727e-09
    Cd    = 1.7618524
    Cl    = 1.1651381e-07
    Cl(f) = 5.0164732e-08
    Cl(r) = 6.6349077e-08

fieldMinMax minmaxdomain write:
    min(p) = -0.65802466 in cell 5900 at location (0.040619337 1.033408 0)
    max(p) = 0.60285418 in cell 7855 at location (-1.033408 -0.040619337 -1.5206571e-17)
    min(U) = (0.23656112 -0.35278183 -3.5907641e-19) in cell 8171 at location (-0.96417992 -0.53993983 1.2345237e-17)
    max(U) = (1.2902513 0.12261432 2.7232574e-19) in cell 4522 at location (0.40588725 2.039092 -2.6265791e-17)

Time = 38

DILUPBiCG:  Solving for Ux, Initial residual = 0.0042288641, Final residual = 4.1545128e-09, No Iterations 6
DILUPBiCG:  Solving for Uy, Initial residual = 0.0056906004, Final residual = 1.1802824e-09, No Iterations 7
GAMG:  Solving for p, Initial residual = 0.023494156, Final residual = 2.1482163e-05, No Iterations 11
GAMG:  Solving for p, Initial residual = 0.0024455484, Final residual = 1.9489797e-06, No Iterations 10
GAMG:  Solving for p, Initial residual = 0.00069782097, Final residual = 7.9250806e-07, No Iterations 10
time step continuity errors : sum local = 1.3044114e-09, global = 2.4379546e-10, cumulative = -1.831587e-08
ExecutionTime = 1.14 s  ClockTime = 1 s

fieldAverage fieldAverage write:
    Calculating averages

forceCoeffs forceCoeffs_object write:
    Cm    = -8.650423e-09
    Cd    = 1.7380624
    Cl    = -9.3959377e-08
    Cl(f) = -5.5630112e-08
    Cl(r) = -3.8329266e-08

fieldMinMax minmaxdomain write:
    min(p) = -0.65760894 in cell 7742 at location (0.040619337 -1.033408 0)
    max(p) = 0.59817814 in cell 7783 at location (-1.033408 0.040619337 1.5208403e-17)
    min(U) = (0.2364056 -0.35239795 -3.5894047e-19) in cell 8171 at location (-0.96417992 -0.53993983 1.2345237e-17)
    max(U) = (1.2898907 0.12610323 2.6992214e-19) in cell 4522 at location (0.40588725 2.039092 -2.6265791e-17)

Time = 39

DILUPBiCG:  Solving for Ux, Initial residual = 0.0040354586, Final residual = 1.9044682e-09, No Iterations 6
DILUPBiCG:  Solving for Uy, Initial residual = 0.00586031, Final residual = 1.252637e-09, No Iterations 7
GAMG:  Solving for p, Initial residual = 0.023539011, Final residual = 1.6727126e-05, No Iterations 12
GAMG:  Solving for p, Initial residual = 0.0026776969, Final residual = 1.8684985e-06, No Iterations 12
GAMG:  Solving for p, Initial residual = 0.00082006163, Final residual = 5.6507187e-07, No Iterations 10
time step continuity errors : sum local = 8.8030749e-10, global = -1.3121128e-10, cumulative = -1.8447081e-08
ExecutionTime = 1.17 s  ClockTime = 1 s

fieldAverage fieldAverage write:
    Calculating averages

forceCoeffs forceCoeffs_object write:
    Cm    = -9.5319949e-09
    Cd    = 1.7241669
    Cl    = -7.2412509e-08
    Cl(f) = -4.5738249e-08
    Cl(r) = -2.667426e-08

fieldMinMax minmaxdomain write:
    min(p) = -0.64895545 in cell 7742 at location (0.040619337 -1.033408 0)
    max(p) = 0.59841493 in cell 7783 at location (-1.033408 0.040619337 1.5208403e-17)
    min(U) = (0.23627996 -0.35196523 -3.5753398e-19) in cell 8171 at location (-0.96417992 -0.53993983 1.2345237e-17)
    max(U) = (1.2892071 0.12950145 2.6281737e-19) in cell 4522 at location (0.40588725 2.039092 -2.6265791e-17)

Time = 40

DILUPBiCG:  Solving for Ux, Initial residual = 0.0039337604, Final residual = 2.0220362e-09, No Iterations 6
DILUPBiCG:  Solving for Uy, Initial residual = 0.0058320078, Final residual = 1.3314369e-09, No Iterations 7
GAMG:  Solving for p, Initial residual = 0.021657243, Final residual = 1.9034748e-05, No Iterations 13
GAMG:  Solving for p, Initial residual = 0.0033099497, Final residual = 2.2074104e-06, No Iterations 11
GAMG:  Solving for p, Initial residual = 0.00086391311, Final residual = 6.4001564e-07, No Iterations 10
time step continuity errors : sum local = 9.868286e-10, global = -1.3870221e-10, cumulative = -1.8585783e-08
ExecutionTime = 1.19 s  ClockTime = 1 s

fieldAverage fieldAverage write:
    Calculating averages

forceCoeffs forceCoeffs_object write:
    Cm    = -9.9179217e-09
    Cd    = 1.7286098
    Cl    = 1.1607584e-07
    Cl(f) = 4.812e-08
    Cl(r) = 6.7955844e-08

fieldMinMax minmaxdomain write:
    min(p) = -0.63795709 in cell 5900 at location (0.040619337 1.033408 0)
    max(p) = 0.60205888 in cell 7855 at location (-1.033408 -0.040619337 -1.5206571e-17)
    min(U) = (0.23600513 -0.35151627 -3.558194e-19) in cell 8171 at location (-0.96417992 -0.53993983 1.2345237e-17)
    max(U) = (1.2881626 0.13308988 2.5604268e-19) in cell 4522 at location (0.40588725 2.039092 -2.6265791e-17)

Time = 41

DILUPBiCG:  Solving for Ux, Initial residual = 0.0039066356, Final residual = 3.7473296e-09, No Iterations 6
DILUPBiCG:  Solving for Uy, Initial residual = 0.0055367589, Final residual = 1.3685263e-09, No Iterations 7
GAMG:  Solving for p, Initial residual = 0.020376225, Final residual = 1.9357684e-05, No Iterations 13
GAMG:  Solving for p, Initial residual = 0.0036044247, Final residual = 2.9878906e-06, No Iterations 10
GAMG:  Solving for p, Initial residual = 0.00087483405, Final residual = 6.8272041e-07, No Iterations 10
time step continuity errors : sum local = 1.0885071e-09, global = 6.5326962e-11, cumulative = -1.8520457e-08
ExecutionTime = 1.22 s  ClockTime = 1 s

fieldAverage fieldAverage write:
    Calculating averages

forceCoeffs forceCoeffs_object write:
    Cm    = -9.5810204e-09
    Cd    = 1.7408262
    Cl    = 2.5401942e-07
    Cl(f) = 1.1742869e-07
    Cl(r) = 1.3659073e-07

fieldMinMax minmaxdomain write:
    min(p) = -0.63081624 in cell 5900 at location (0.040619337 1.033408 0)
    max(p) = 0.60504765 in cell 7855 at location (-1.033408 -0.040619337 -1.5206571e-17)
    min(U) = (0.23558423 -0.35106883 -3.5473751e-19) in cell 8171 at location (-0.96417992 -0.53993983 1.2345237e-17)
    max(U) = (1.2869326 0.1367313 2.5287178e-19) in cell 4522 at location (0.40588725 2.039092 -2.6265791e-17)

Time = 42

DILUPBiCG:  Solving for Ux, Initial residual = 0.0038677898, Final residual = 4.2222283e-09, No Iterations 6
DILUPBiCG:  Solving for Uy, Initial residual = 0.0052147027, Final residual = 1.3888401e-09, No Iterations 7
GAMG:  Solving for p, Initial residual = 0.018324592, Final residual = 1.5892108e-05, No Iterations 12
GAMG:  Solving for p, Initial residual = 0.00330333, Final residual = 2.6651234e-06, No Iterations 10
GAMG:  Solving for p, Initial residual = 0.00077287342, Final residual = 7.5227401e-07, No Iterations 10
time step continuity errors : sum local = 1.2377517e-09, global = -1.6766874e-11, cumulative = -1.8537223e-08
ExecutionTime = 1.24 s  ClockTime = 1 s

fieldAverage fieldAverage write:
    Calculating averages

forceCoeffs forceCoeffs_object write:
    Cm    = -8.9982089e-09
    Cd    = 1.7466411
    Cl    = 2.6151412e-07
    Cl(f) = 1.2175885e-07
    Cl(r) = 1.3975527e-07

fieldMinMax minmaxdomain write:
    min(p) = -0.62828661 in cell 5900 at location (0.040619337 1.033408 0)
    max(p) = 0.60530023 in cell 7855 at location (-1.033408 -0.040619337 -1.5206571e-17)
    min(U) = (0.23514411 -0.35061757 -3.5435858e-19) in cell 8171 at location (-0.96417992 -0.53993983 1.2345237e-17)
    max(U) = (1.2857019 0.14013815 2.5238141e-19) in cell 4522 at location (0.40588725 2.039092 -2.6265791e-17)

Time = 43

DILUPBiCG:  Solving for Ux, Initial residual = 0.0037727772, Final residual = 2.1642429e-09, No Iterations 6
DILUPBiCG:  Solving for Uy, Initial residual = 0.0051411995, Final residual = 1.4377839e-09, No Iterations 7
GAMG:  Solving for p, Initial residual = 0.016524778, Final residual = 1.5478589e-05, No Iterations 11
GAMG:  Solving for p, Initial residual = 0.002653555, Final residual = 1.2595223e-06, No Iterations 11
GAMG:  Solving for p, Initial residual = 0.00062583871, Final residual = 7.2720078e-07, No Iterations 10
time step continuity errors : sum local = 1.1961646e-09, global = -2.4086301e-11, cumulative = -1.856131e-08
ExecutionTime = 1.27 s  ClockTime = 1 s

fieldAverage fieldAverage write:
    Calculating averages

forceCoeffs forceCoeffs_object write:
    Cm    = -8.6516246e-09
    Cd    = 1.7419281
    Cl    = 1.4719715e-07
    Cl(f) = 6.4946951e-08
    Cl(r) = 8.22502e-08

fieldMinMax minmaxdomain write:
    min(p) = -0.62677172 in cell 5900 at location (0.040619337 1.033408 0)
    max(p) = 0.60388734 in cell 7855 at location (-1.033408 -0.040619337 -1.5206571e-17)
    min(U) = (0.23478135 -0.35015024 -3.5409661e-19) in cell 8171 at location (-0.96417992 -0.53993983 1.2345237e-17)
    max(U) = (1.2845179 0.14318481 2.5156373e-19) in cell 4522 at location (0.40588725 2.039092 -2.6265791e-17)

Time = 44

DILUPBiCG:  Solving for Ux, Initial residual = 0.0036459077, Final residual = 2.7234671e-09, No Iterations 6
DILUPBiCG:  Solving for Uy, Initial residual = 0.0051727355, Final residual = 1.5300208e-09, No Iterations 7
GAMG:  Solving for p, Initial residual = 0.015816865, Final residual = 1.0553833e-05, No Iterations 12
GAMG:  Solving for p, Initial residual = 0.0021112867, Final residual = 2.0424676e-06, No Iterations 10
GAMG:  Solving for p, Initial residual = 0.00059481863, Final residual = 6.3143955e-07, No Iterations 10
time step continuity errors : sum local = 1.0146764e-09, global = -1.1834515e-10, cumulative = -1.8679655e-08
ExecutionTime = 1.29 s  ClockTime = 1 s

fieldAverage fieldAverage write:
    Calculating averages

forceCoeffs forceCoeffs_object write:
    Cm    = -8.7021365e-09
    Cd    = 1.73308
    Cl    = 5.1975469e-08
    Cl(f) = 1.7285598e-08
    Cl(r) = 3.4689871e-08

fieldMinMax minmaxdomain write:
    min(p) = -0.62303719 in cell 5900 at location (0.040619337 1.033408 0)
    max(p) = 0.60296749 in cell 7855 at location (-1.033408 -0.040619337 -1.5206571e-17)
    min(U) = (0.23448507 -0.34966444 -3.5345261e-19) in cell 8171 at location (-0.96417992 -0.53993983 1.2345237e-17)
    max(U) = (1.2832869 0.14598797 2.4869707e-19) in cell 4522 at location (0.40588725 2.039092 -2.6265791e-17)

Time = 45

DILUPBiCG:  Solving for Ux, Initial residual = 0.0035311486, Final residual = 4.2446212e-09, No Iterations 6
DILUPBiCG:  Solving for Uy, Initial residual = 0.0051617792, Final residual = 1.5809915e-09, No Iterations 7
GAMG:  Solving for p, Initial residual = 0.015448272, Final residual = 1.3433656e-05, No Iterations 12
GAMG:  Solving for p, Initial residual = 0.0022177726, Final residual = 1.6688472e-06, No Iterations 11
GAMG:  Solving for p, Initial residual = 0.00065736762, Final residual = 9.2022101e-07, No Iterations 9
time step continuity errors : sum local = 1.451309e-09, global = -1.2462194e-10, cumulative = -1.8804277e-08
ExecutionTime = 1.34 s  ClockTime = 1 s

fieldAverage fieldAverage write:
    Calculating averages

    Writing average fields


forceCoeffs forceCoeffs_object write:
    Cm    = -8.9292055e-09
    Cd    = 1.7279968
    Cl    = 8.20294e-08
    Cl(f) = 3.2085494e-08
    Cl(r) = 4.9943905e-08

fieldMinMax minmaxdomain write:
    min(p) = -0.61703051 in cell 5900 at location (0.040619337 1.033408 0)
    max(p) = 0.60348114 in cell 7855 at location (-1.033408 -0.040619337 -1.5206571e-17)
    min(U) = (0.2341827 -0.34916889 -3.5243963e-19) in cell 8171 at location (-0.96417992 -0.53993983 1.2345237e-17)
    max(U) = (1.2819151 0.14872862 2.4450082e-19) in cell 4522 at location (0.40588725 2.039092 -2.6265791e-17)

Time = 46

DILUPBiCG:  Solving for Ux, Initial residual = 0.0034483819, Final residual = 5.7036714e-09, No Iterations 6
DILUPBiCG:  Solving for Uy, Initial residual = 0.005064696, Final residual = 1.5169551e-09, No Iterations 7
GAMG:  Solving for p, Initial residual = 0.014837987, Final residual = 1.4651041e-05, No Iterations 12
GAMG:  Solving for p, Initial residual = 0.0025494186, Final residual = 1.3658462e-06, No Iterations 11
GAMG:  Solving for p, Initial residual = 0.00068764305, Final residual = 9.1929131e-07, No Iterations 9
time step continuity errors : sum local = 1.451644e-09, global = -8.8692675e-11, cumulative = -1.8892969e-08
ExecutionTime = 1.41 s  ClockTime = 1 s

fieldAverage fieldAverage write:
    Calculating averages

forceCoeffs forceCoeffs_object write:
    Cm    = -8.9830318e-09
    Cd    = 1.7286427
    Cl    = 1.5308255e-07
    Cl(f) = 6.7558242e-08
    Cl(r) = 8.5524306e-08

fieldMinMax minmaxdomain write:
    min(p) = -0.61088119 in cell 5900 at location (0.040619337 1.033408 0)
    max(p) = 0.60474061 in cell 7855 at location (-1.033408 -0.040619337 -1.5206571e-17)
    min(U) = (0.23382727 -0.34867353 -3.5140749e-19) in cell 8171 at location (-0.96417992 -0.53993983 1.2345237e-17)
    max(U) = (1.2803976 0.15147776 2.4072172e-19) in cell 4522 at location (0.40588725 2.039092 -2.6265791e-17)

Time = 47

DILUPBiCG:  Solving for Ux, Initial residual = 0.00338178, Final residual = 6.7819973e-09, No Iterations 6
DILUPBiCG:  Solving for Uy, Initial residual = 0.0049755879, Final residual = 1.4458798e-09, No Iterations 7
GAMG:  Solving for p, Initial residual = 0.014014019, Final residual = 1.1763238e-05, No Iterations 12
GAMG:  Solving for p, Initial residual = 0.0027610094, Final residual = 1.390394e-06, No Iterations 11
GAMG:  Solving for p, Initial residual = 0.00066638758, Final residual = 8.9217112e-07, No Iterations 9
time step continuity errors : sum local = 1.4273088e-09, global = 5.6443181e-12, cumulative = -1.8887325e-08
ExecutionTime = 1.44 s  ClockTime = 2 s

fieldAverage fieldAverage write:
    Calculating averages

forceCoeffs forceCoeffs_object write:
    Cm    = -8.7094093e-09
    Cd    = 1.7311997
    Cl    = 1.9326568e-07
    Cl(f) = 8.7923431e-08
    Cl(r) = 1.0534225e-07

fieldMinMax minmaxdomain write:
    min(p) = -0.60624215 in cell 5900 at location (0.040619337 1.033408 0)
    max(p) = 0.60562026 in cell 7855 at location (-1.033408 -0.040619337 -1.5206571e-17)
    min(U) = (0.23343301 -0.34818157 -3.5061947e-19) in cell 8171 at location (-0.96417992 -0.53993983 1.2345237e-17)
    max(U) = (1.2788052 0.15417314 2.3824577e-19) in cell 4522 at location (0.40588725 2.039092 -2.6265791e-17)

Time = 48

DILUPBiCG:  Solving for Ux, Initial residual = 0.0033065719, Final residual = 7.3833853e-09, No Iterations 6
DILUPBiCG:  Solving for Uy, Initial residual = 0.0049391821, Final residual = 1.3886186e-09, No Iterations 7
GAMG:  Solving for p, Initial residual = 0.013091469, Final residual = 1.0927836e-05, No Iterations 12
GAMG:  Solving for p, Initial residual = 0.002642422, Final residual = 1.3807395e-06, No Iterations 11
GAMG:  Solving for p, Initial residual = 0.00061987293, Final residual = 8.5513606e-07, No Iterations 9
time step continuity errors : sum local = 1.3779148e-09, global = 5.1244227e-11, cumulative = -1.8836081e-08
ExecutionTime = 1.47 s  ClockTime = 2 s

fieldAverage fieldAverage write:
    Calculating averages

forceCoeffs forceCoeffs_object write:
    Cm    = -8.297903e-09
    Cd    = 1.7313027
    Cl    = 1.5490577e-07
    Cl(f) = 6.915498e-08
    Cl(r) = 8.5750786e-08

fieldMinMax minmaxdomain write:
    min(p) = -0.60295119 in cell 5900 at location (0.040619337 1.033408 0)
    max(p) = 0.60571469 in cell 7855 at location (-1.033408 -0.040619337 -1.5206571e-17)
    min(U) = (0.23304377 -0.34769042 -3.5004493e-19) in cell 8171 at location (-0.96417992 -0.53993983 1.2345237e-17)
    max(U) = (1.2772074 0.15672193 2.3658659e-19) in cell 4522 at location (0.40588725 2.039092 -2.6265791e-17)

Time = 49

DILUPBiCG:  Solving for Ux, Initial residual = 0.0032159079, Final residual = 8.1280605e-09, No Iterations 6
DILUPBiCG:  Solving for Uy, Initial residual = 0.0049221814, Final residual = 1.3462808e-09, No Iterations 7
GAMG:  Solving for p, Initial residual = 0.012369581, Final residual = 9.5383293e-06, No Iterations 13
GAMG:  Solving for p, Initial residual = 0.0023275683, Final residual = 1.2309589e-06, No Iterations 11
GAMG:  Solving for p, Initial residual = 0.00056432602, Final residual = 8.0485032e-07, No Iterations 9
time step continuity errors : sum local = 1.2894829e-09, global = 9.7985652e-12, cumulative = -1.8826282e-08
ExecutionTime = 1.49 s  ClockTime = 2 s

fieldAverage fieldAverage write:
    Calculating averages

forceCoeffs forceCoeffs_object write:
    Cm    = -7.9927689e-09
    Cd    = 1.7281035
    Cl    = 8.9537555e-08
    Cl(f) = 3.6776009e-08
    Cl(r) = 5.2761546e-08

fieldMinMax minmaxdomain write:
    min(p) = -0.59978692 in cell 5900 at location (0.040619337 1.033408 0)
    max(p) = 0.60544408 in cell 7855 at location (-1.033408 -0.040619337 -1.5206571e-17)
    min(U) = (0.23268478 -0.34719749 -3.4948379e-19) in cell 8171 at location (-0.96417992 -0.53993983 1.2345237e-17)
    max(U) = (1.27562 0.15909836 2.3476143e-19) in cell 4522 at location (0.40588725 2.039092 -2.6265791e-17)

Time = 50

DILUPBiCG:  Solving for Ux, Initial residual = 0.0031201137, Final residual = 2.7644239e-10, No Iterations 7
DILUPBiCG:  Solving for Uy, Initial residual = 0.0048920997, Final residual = 1.3312661e-09, No Iterations 7
GAMG:  Solving for p, Initial residual = 0.011985941, Final residual = 1.0677601e-05, No Iterations 13
GAMG:  Solving for p, Initial residual = 0.0020470052, Final residual = 1.1047124e-06, No Iterations 11
GAMG:  Solving for p, Initial residual = 0.00055910836, Final residual = 7.2357028e-07, No Iterations 9
time step continuity errors : sum local = 1.1459191e-09, global = -4.5624996e-11, cumulative = -1.8871907e-08
ExecutionTime = 1.52 s  ClockTime = 2 s

fieldAverage fieldAverage write:
    Calculating averages

forceCoeffs forceCoeffs_object write:
    Cm    = -7.8362175e-09
    Cd    = 1.7238941
    Cl    = 5.469792e-08
    Cl(f) = 1.9512742e-08
    Cl(r) = 3.5185178e-08

fieldMinMax minmaxdomain write:
    min(p) = -0.5959249 in cell 5900 at location (0.040619337 1.033408 0)
    max(p) = 0.6053894 in cell 7855 at location (-1.033408 -0.040619337 -1.5206571e-17)
    min(U) = (0.43957405 -0.35572778 -4.1041195e-19) in cell 7788 at location (-1.3279551 -0.48993943 -1.7163502e-17)
    max(U) = (1.2740144 0.16135 2.3232733e-19) in cell 4522 at location (0.40588725 2.039092 -2.6265791e-17)

Time = 51

DILUPBiCG:  Solving for Ux, Initial residual = 0.0030323964, Final residual = 3.0058695e-10, No Iterations 7
DILUPBiCG:  Solving for Uy, Initial residual = 0.0048417883, Final residual = 1.3226134e-09, No Iterations 7
GAMG:  Solving for p, Initial residual = 0.011814392, Final residual = 1.0861888e-05, No Iterations 13
GAMG:  Solving for p, Initial residual = 0.0020799265, Final residual = 1.1281425e-06, No Iterations 11
GAMG:  Solving for p, Initial residual = 0.00059140622, Final residual = 6.2317747e-07, No Iterations 9
time step continuity errors : sum local = 9.8014604e-10, global = -6.0766736e-11, cumulative = -1.8932674e-08
ExecutionTime = 1.54 s  ClockTime = 2 s

fieldAverage fieldAverage write:
    Calculating averages

forceCoeffs forceCoeffs_object write:
    Cm    = -7.7159255e-09
    Cd    = 1.721079
    Cl    = 6.9288989e-08
    Cl(f) = 2.6928569e-08
    Cl(r) = 4.236042e-08

fieldMinMax minmaxdomain write:
    min(p) = -0.59158198 in cell 6000 at location (-0.040619337 1.033408 0)
    max(p) = 0.60571898 in cell 7855 at location (-1.033408 -0.040619337 -1.5206571e-17)
    min(U) = (0.43910598 -0.35544722 -4.099643e-19) in cell 7788 at location (-1.3279551 -0.48993943 -1.7163502e-17)
    max(U) = (1.2723625 0.16353615 2.2960009e-19) in cell 4522 at location (0.40588725 2.039092 -2.6265791e-17)

Time = 52

DILUPBiCG:  Solving for Ux, Initial residual = 0.0029556664, Final residual = 2.3629491e-10, No Iterations 7
DILUPBiCG:  Solving for Uy, Initial residual = 0.004789451, Final residual = 1.3187492e-09, No Iterations 7
GAMG:  Solving for p, Initial residual = 0.011454181, Final residual = 1.0803957e-05, No Iterations 13
GAMG:  Solving for p, Initial residual = 0.0022460895, Final residual = 1.1891493e-06, No Iterations 11
GAMG:  Solving for p, Initial residual = 0.00060120247, Final residual = 5.8015281e-07, No Iterations 9
time step continuity errors : sum local = 9.1325551e-10, global = -4.2279619e-11, cumulative = -1.8974954e-08
ExecutionTime = 1.57 s  ClockTime = 2 s

fieldAverage fieldAverage write:
    Calculating averages

forceCoeffs forceCoeffs_object write:
    Cm    = -7.488866e-09
    Cd    = 1.7200177
    Cl    = 1.0831439e-07
    Cl(f) = 4.6668329e-08
    Cl(r) = 6.1646061e-08

fieldMinMax minmaxdomain write:
    min(p) = -0.58744937 in cell 6000 at location (-0.040619337 1.033408 0)
    max(p) = 0.60618543 in cell 7855 at location (-1.033408 -0.040619337 -1.5206571e-17)
    min(U) = (0.43862049 -0.35517542 -4.0955225e-19) in cell 7788 at location (-1.3279551 -0.48993943 -1.7163502e-17)
    max(U) = (1.2706668 0.16567523 2.2712658e-19) in cell 4522 at location (0.40588725 2.039092 -2.6265791e-17)

Time = 53

DILUPBiCG:  Solving for Ux, Initial residual = 0.0028826205, Final residual = 3.0400076e-10, No Iterations 7
DILUPBiCG:  Solving for Uy, Initial residual = 0.0047422186, Final residual = 1.3158879e-09, No Iterations 7
GAMG:  Solving for p, Initial residual = 0.011034439, Final residual = 8.951428e-06, No Iterations 14
GAMG:  Solving for p, Initial residual = 0.0023320698, Final residual = 1.1875762e-06, No Iterations 11
GAMG:  Solving for p, Initial residual = 0.00058487259, Final residual = 5.3266429e-07, No Iterations 9
time step continuity errors : sum local = 8.4144952e-10, global = 4.6794502e-11, cumulative = -1.8928159e-08
ExecutionTime = 1.6 s  ClockTime = 2 s

fieldAverage fieldAverage write:
    Calculating averages

forceCoeffs forceCoeffs_object write:
    Cm    = -7.13869e-09
    Cd    = 1.7193645
    Cl    = 1.2668618e-07
    Cl(f) = 5.6204401e-08
    Cl(r) = 7.0481781e-08

fieldMinMax minmaxdomain write:
    min(p) = -0.58385623 in cell 6000 at location (-0.040619337 1.033408 0)
    max(p) = 0.60649405 in cell 7855 at location (-1.033408 -0.040619337 -1.5206571e-17)
    min(U) = (0.43812073 -0.35491061 -4.0903294e-19) in cell 7788 at location (-1.3279551 -0.48993943 -1.7163502e-17)
    max(U) = (1.2689541 0.16774538 2.2512436e-19) in cell 4522 at location (0.40588725 2.039092 -2.6265791e-17)

Time = 54

DILUPBiCG:  Solving for Ux, Initial residual = 0.0028075708, Final residual = 3.3961979e-09, No Iterations 6
DILUPBiCG:  Solving for Uy, Initial residual = 0.0046904729, Final residual = 1.3202075e-09, No Iterations 7
GAMG:  Solving for p, Initial residual = 0.010516008, Final residual = 9.7063032e-06, No Iterations 14
GAMG:  Solving for p, Initial residual = 0.0022598619, Final residual = 1.1777902e-06, No Iterations 11
GAMG:  Solving for p, Initial residual = 0.00056322451, Final residual = 9.5069057e-07, No Iterations 8
time step continuity errors : sum local = 1.5022281e-09, global = 1.0960712e-11, cumulative = -1.8917199e-08
ExecutionTime = 1.62 s  ClockTime = 2 s

fieldAverage fieldAverage write:
    Calculating averages

forceCoeffs forceCoeffs_object write:
    Cm    = -6.7420813e-09
    Cd    = 1.7178304
    Cl    = 6.1825161e-08
    Cl(f) = 2.4170499e-08
    Cl(r) = 3.7654662e-08

fieldMinMax minmaxdomain write:
    min(p) = -0.58068586 in cell 6000 at location (-0.040619337 1.033408 0)
    max(p) = 0.60657926 in cell 7855 at location (-1.033408 -0.040619337 -1.5206571e-17)
    min(U) = (0.23094194 -0.34477895 -3.460198e-19) in cell 8171 at location (-0.96417992 -0.53993983 1.2345237e-17)
    max(U) = (1.2672491 0.16972011 2.2339711e-19) in cell 4522 at location (0.40588725 2.039092 -2.6265791e-17)

Time = 55

DILUPBiCG:  Solving for Ux, Initial residual = 0.0027295739, Final residual = 2.5145437e-09, No Iterations 6
DILUPBiCG:  Solving for Uy, Initial residual = 0.0046298131, Final residual = 1.3834764e-09, No Iterations 7
GAMG:  Solving for p, Initial residual = 0.010048923, Final residual = 6.2112667e-06, No Iterations 15
GAMG:  Solving for p, Initial residual = 0.0020701343, Final residual = 1.0803527e-06, No Iterations 11
GAMG:  Solving for p, Initial residual = 0.00054145964, Final residual = 8.6510421e-07, No Iterations 8
time step continuity errors : sum local = 1.3616506e-09, global = 4.9010153e-11, cumulative = -1.8868188e-08
ExecutionTime = 1.65 s  ClockTime = 2 s

fieldAverage fieldAverage write:
    Calculating averages

forceCoeffs forceCoeffs_object write:
    Cm    = -6.4461467e-09
    Cd    = 1.715315
    Cl    = 3.7805876e-08
    Cl(f) = 1.2456791e-08
    Cl(r) = 2.5349085e-08

fieldMinMax minmaxdomain write:
    min(p) = -0.57758186 in cell 6000 at location (-0.040619337 1.033408 0)
    max(p) = 0.60657948 in cell 7855 at location (-1.033408 -0.040619337 -1.5206571e-17)
    min(U) = (0.23060391 -0.34431189 -3.4543231e-19) in cell 8171 at location (-0.96417992 -0.53993983 1.2345237e-17)
    max(U) = (1.2655576 0.17159658 2.2164303e-19) in cell 4522 at location (0.40588725 2.039092 -2.6265791e-17)

Time = 56

DILUPBiCG:  Solving for Ux, Initial residual = 0.0026529891, Final residual = 1.9222456e-09, No Iterations 6
DILUPBiCG:  Solving for Uy, Initial residual = 0.0045667989, Final residual = 1.3189096e-09, No Iterations 7
GAMG:  Solving for p, Initial residual = 0.0097850513, Final residual = 6.2965363e-06, No Iterations 15
GAMG:  Solving for p, Initial residual = 0.0019332126, Final residual = 1.0033995e-06, No Iterations 11
GAMG:  Solving for p, Initial residual = 0.00053430762, Final residual = 8.2159191e-07, No Iterations 8
time step continuity errors : sum local = 1.2872826e-09, global = 6.1038144e-11, cumulative = -1.880715e-08
ExecutionTime = 1.67 s  ClockTime = 2 s

fieldAverage fieldAverage write:
    Calculating averages

forceCoeffs forceCoeffs_object write:
    Cm    = -6.27753e-09
    Cd    = 1.7126059
    Cl    = 5.4579855e-08
    Cl(f) = 2.1012397e-08
    Cl(r) = 3.3567457e-08

fieldMinMax minmaxdomain write:
    min(p) = -0.57434557 in cell 6000 at location (-0.040619337 1.033408 0)
    max(p) = 0.60664315 in cell 7855 at location (-1.033408 -0.040619337 -1.5206571e-17)
    min(U) = (0.2302757 -0.34385085 -3.4481709e-19) in cell 8171 at location (-0.96417992 -0.53993983 1.2345237e-17)
    max(U) = (1.2638714 0.17339333 2.1975153e-19) in cell 4522 at location (0.40588725 2.039092 -2.6265791e-17)

Time = 57

DILUPBiCG:  Solving for Ux, Initial residual = 0.0025807479, Final residual = 2.0601246e-09, No Iterations 6
DILUPBiCG:  Solving for Uy, Initial residual = 0.0045059168, Final residual = 9.7202887e-09, No Iterations 6
GAMG:  Solving for p, Initial residual = 0.0096622921, Final residual = 6.2581184e-06, No Iterations 15
GAMG:  Solving for p, Initial residual = 0.0019378256, Final residual = 1.9186043e-06, No Iterations 10
GAMG:  Solving for p, Initial residual = 0.00053988048, Final residual = 8.1698876e-07, No Iterations 8
time step continuity errors : sum local = 1.2773208e-09, global = -3.2383018e-12, cumulative = -1.8810389e-08
ExecutionTime = 1.7 s  ClockTime = 2 s

fieldAverage fieldAverage write:
    Calculating averages

forceCoeffs forceCoeffs_object write:
    Cm    = -6.114791e-09
    Cd    = 1.7103973
    Cl    = 7.0283987e-08
    Cl(f) = 2.9027203e-08
    Cl(r) = 4.1256784e-08

fieldMinMax minmaxdomain write:
    min(p) = -0.57105907 in cell 6000 at location (-0.040619337 1.033408 0)
    max(p) = 0.60679373 in cell 7855 at location (-1.033408 -0.040619337 -1.5206571e-17)
    min(U) = (0.22995043 -0.34339713 -3.4418858e-19) in cell 8171 at location (-0.96417992 -0.53993983 1.2345237e-17)
    max(U) = (1.2621826 0.17513034 2.1783609e-19) in cell 4522 at location (0.40588725 2.039092 -2.6265791e-17)

Time = 58

DILUPBiCG:  Solving for Ux, Initial residual = 0.002512263, Final residual = 2.432766e-09, No Iterations 6
DILUPBiCG:  Solving for Uy, Initial residual = 0.0044441529, Final residual = 9.4745054e-09, No Iterations 6
GAMG:  Solving for p, Initial residual = 0.0094673604, Final residual = 6.1587423e-06, No Iterations 15
GAMG:  Solving for p, Initial residual = 0.0020038651, Final residual = 1.933424e-06, No Iterations 10
GAMG:  Solving for p, Initial residual = 0.0005392921, Final residual = 8.0770489e-07, No Iterations 8
time step continuity errors : sum local = 1.2634589e-09, global = 3.2397717e-12, cumulative = -1.8807149e-08
ExecutionTime = 1.73 s  ClockTime = 2 s

fieldAverage fieldAverage write:
    Calculating averages

forceCoeffs forceCoeffs_object write:
    Cm    = -5.8846403e-09
    Cd    = 1.7087181
    Cl    = 6.9114327e-08
    Cl(f) = 2.8672523e-08
    Cl(r) = 4.0441804e-08

fieldMinMax minmaxdomain write:
    min(p) = -0.56791549 in cell 6000 at location (-0.040619337 1.033408 0)
    max(p) = 0.6069535 in cell 7855 at location (-1.033408 -0.040619337 -1.5206571e-17)
    min(U) = (0.22962568 -0.34295151 -3.4358041e-19) in cell 8171 at location (-0.96417992 -0.53993983 1.2345237e-17)
    max(U) = (1.2604934 0.17681306 2.1603666e-19) in cell 4522 at location (0.40588725 2.039092 -2.6265791e-17)

Time = 59

DILUPBiCG:  Solving for Ux, Initial residual = 0.0024458058, Final residual = 1.9615137e-09, No Iterations 6
DILUPBiCG:  Solving for Uy, Initial residual = 0.0043773237, Final residual = 9.3685188e-09, No Iterations 6
GAMG:  Solving for p, Initial residual = 0.0092400953, Final residual = 6.143795e-06, No Iterations 15
GAMG:  Solving for p, Initial residual = 0.0020255841, Final residual = 1.9612376e-06, No Iterations 10
GAMG:  Solving for p, Initial residual = 0.00053244319, Final residual = 7.9326738e-07, No Iterations 8
time step continuity errors : sum local = 1.2420565e-09, global = 1.1097027e-11, cumulative = -1.8796052e-08
ExecutionTime = 1.75 s  ClockTime = 2 s

fieldAverage fieldAverage write:
    Calculating averages

forceCoeffs forceCoeffs_object write:
    Cm    = -5.5877304e-09
    Cd    = 1.7071224
    Cl    = 5.6283168e-08
    Cl(f) = 2.2553854e-08
    Cl(r) = 3.3729314e-08

fieldMinMax minmaxdomain write:
    min(p) = -0.56500471 in cell 6000 at location (-0.040619337 1.033408 0)
    max(p) = 0.60705006 in cell 7855 at location (-1.033408 -0.040619337 -1.5206571e-17)
    min(U) = (0.22930427 -0.342514 -3.4300905e-19) in cell 8171 at location (-0.96417992 -0.53993983 1.2345237e-17)
    max(U) = (1.2588205 0.17842262 2.1437114e-19) in cell 4522 at location (0.40588725 2.039092 -2.6265791e-17)

Time = 60

DILUPBiCG:  Solving for Ux, Initial residual = 0.002380352, Final residual = 1.5754738e-09, No Iterations 6
DILUPBiCG:  Solving for Uy, Initial residual = 0.0043043144, Final residual = 9.2719233e-09, No Iterations 6
GAMG:  Solving for p, Initial residual = 0.0088575372, Final residual = 6.1897718e-06, No Iterations 15
[...]
ExecutionTime = 7.31 s  ClockTime = 8 s

forceCoeffs forceCoeffs_object write:
    Cm    = -9.8185676e-10
    Cd    = 1.6207246
    Cl    = -2.3490189e-08
    Cl(f) = -1.2726951e-08
    Cl(r) = -1.0763238e-08

fieldMinMax minmaxdomain write:
    min(p) = -0.4643125 in cell 7815 at location (-0.040619337 -1.033408 0)
    max(p) = 0.61392594 in cell 7783 at location (-1.033408 0.040619337 1.5208403e-17)
    min(U) = (0.21700672 -0.32544276 -3.2231642e-19) in cell 8171 at location (-0.96417992 -0.53993983 1.2345237e-17)
    max(U) = (1.194208 0.21855226 1.1880591e-19) in cell 4428 at location (0.42727634 2.1464795 3.1731817e-17)

Time = 286

DILUPBiCG:  Solving for Ux, Initial residual = 1.1565663e-05, Final residual = 9.4393973e-09, No Iterations 3
DILUPBiCG:  Solving for Uy, Initial residual = 2.1179596e-05, Final residual = 5.7228936e-09, No Iterations 3
GAMG:  Solving for p, Initial residual = 3.4604479e-05, Final residual = 9.6104392e-07, No Iterations 6
GAMG:  Solving for p, Initial residual = 4.2536828e-06, Final residual = 6.2801779e-07, No Iterations 3
GAMG:  Solving for p, Initial residual = 1.065767e-06, Final residual = 1.8009838e-07, No Iterations 3
time step continuity errors : sum local = 2.2986943e-10, global = 2.1982892e-11, cumulative = -2.261188e-08
ExecutionTime = 7.33 s  ClockTime = 8 s

forceCoeffs forceCoeffs_object write:
    Cm    = -1.0595528e-09
    Cd    = 1.6207195
    Cl    = -2.1086815e-08
    Cl(f) = -1.160296e-08
    Cl(r) = -9.4838549e-09

fieldMinMax minmaxdomain write:
    min(p) = -0.46430227 in cell 7815 at location (-0.040619337 -1.033408 0)
    max(p) = 0.61393146 in cell 7783 at location (-1.033408 0.040619337 1.5208403e-17)
    min(U) = (0.21700604 -0.32544181 -3.223153e-19) in cell 8171 at location (-0.96417992 -0.53993983 1.2345237e-17)
    max(U) = (1.1942042 0.21855391 1.18805e-19) in cell 4428 at location (0.42727634 2.1464795 3.1731817e-17)

Time = 287

DILUPBiCG:  Solving for Ux, Initial residual = 1.1255554e-05, Final residual = 9.1848183e-09, No Iterations 3
DILUPBiCG:  Solving for Uy, Initial residual = 2.0613606e-05, Final residual = 5.5689619e-09, No Iterations 3
GAMG:  Solving for p, Initial residual = 3.3709415e-05, Final residual = 9.3658577e-07, No Iterations 6
GAMG:  Solving for p, Initial residual = 4.1459125e-06, Final residual = 6.1198216e-07, No Iterations 3
GAMG:  Solving for p, Initial residual = 1.0383119e-06, Final residual = 1.753643e-07, No Iterations 3
time step continuity errors : sum local = 2.2379543e-10, global = 2.1441334e-11, cumulative = -2.2590439e-08
ExecutionTime = 7.34 s  ClockTime = 8 s

forceCoeffs forceCoeffs_object write:
    Cm    = -1.1113084e-09
    Cd    = 1.6207144
    Cl    = -1.2602972e-08
    Cl(f) = -7.4127944e-09
    Cl(r) = -5.1901775e-09

fieldMinMax minmaxdomain write:
    min(p) = -0.46429232 in cell 7815 at location (-0.040619337 -1.033408 0)
    max(p) = 0.61393681 in cell 7783 at location (-1.033408 0.040619337 1.5208403e-17)
    min(U) = (0.21700537 -0.32544088 -3.2231421e-19) in cell 8171 at location (-0.96417992 -0.53993983 1.2345237e-17)
    max(U) = (1.1942006 0.21855551 1.1880412e-19) in cell 4428 at location (0.42727634 2.1464795 3.1731817e-17)

Time = 288

DILUPBiCG:  Solving for Ux, Initial residual = 1.095346e-05, Final residual = 8.9314406e-09, No Iterations 3
DILUPBiCG:  Solving for Uy, Initial residual = 2.0062231e-05, Final residual = 5.4182663e-09, No Iterations 3
GAMG:  Solving for p, Initial residual = 3.2806929e-05, Final residual = 9.1182842e-07, No Iterations 6
GAMG:  Solving for p, Initial residual = 4.0325385e-06, Final residual = 5.9564759e-07, No Iterations 3
GAMG:  Solving for p, Initial residual = 1.0107343e-06, Final residual = 1.7078453e-07, No Iterations 3
time step continuity errors : sum local = 2.1792062e-10, global = 2.0886709e-11, cumulative = -2.2569552e-08
ExecutionTime = 7.35 s  ClockTime = 8 s

forceCoeffs forceCoeffs_object write:
    Cm    = -1.1503366e-09
    Cd    = 1.6207095
    Cl    = -7.3138224e-09
    Cl(f) = -4.8072479e-09
    Cl(r) = -2.5065746e-09

fieldMinMax minmaxdomain write:
    min(p) = -0.46428263 in cell 7815 at location (-0.040619337 -1.033408 0)
    max(p) = 0.61394203 in cell 7783 at location (-1.033408 0.040619337 1.5208403e-17)
    min(U) = (0.21700473 -0.32543997 -3.2231315e-19) in cell 8171 at location (-0.96417992 -0.53993983 1.2345237e-17)
    max(U) = (1.194197 0.21855707 1.1880326e-19) in cell 4428 at location (0.42727634 2.1464795 3.1731817e-17)

Time = 289

DILUPBiCG:  Solving for Ux, Initial residual = 1.0659605e-05, Final residual = 8.6834707e-09, No Iterations 3
DILUPBiCG:  Solving for Uy, Initial residual = 1.9525506e-05, Final residual = 5.2716948e-09, No Iterations 3
GAMG:  Solving for p, Initial residual = 3.1919635e-05, Final residual = 8.8707012e-07, No Iterations 6
GAMG:  Solving for p, Initial residual = 3.9193773e-06, Final residual = 5.7935549e-07, No Iterations 3
GAMG:  Solving for p, Initial residual = 9.8334894e-07, Final residual = 1.6628001e-07, No Iterations 3
time step continuity errors : sum local = 2.1214408e-10, global = 2.0320206e-11, cumulative = -2.2549232e-08
ExecutionTime = 7.37 s  ClockTime = 8 s

forceCoeffs forceCoeffs_object write:
    Cm    = -1.1929362e-09
    Cd    = 1.6207047
    Cl    = -8.4034822e-09
    Cl(f) = -5.3946773e-09
    Cl(r) = -3.0088049e-09

fieldMinMax minmaxdomain write:
    min(p) = -0.4642732 in cell 7815 at location (-0.040619337 -1.033408 0)
    max(p) = 0.61394712 in cell 7783 at location (-1.033408 0.040619337 1.5208403e-17)
    min(U) = (0.2170041 -0.32543909 -3.2231212e-19) in cell 8171 at location (-0.96417992 -0.53993983 1.2345237e-17)
    max(U) = (1.1941936 0.21855859 1.1880242e-19) in cell 4428 at location (0.42727634 2.1464795 3.1731817e-17)

Time = 290

DILUPBiCG:  Solving for Ux, Initial residual = 1.0373923e-05, Final residual = 8.4440883e-09, No Iterations 3
DILUPBiCG:  Solving for Uy, Initial residual = 1.900329e-05, Final residual = 5.1296292e-09, No Iterations 3
GAMG:  Solving for p, Initial residual = 3.1070416e-05, Final residual = 8.6286222e-07, No Iterations 6
GAMG:  Solving for p, Initial residual = 3.8125366e-06, Final residual = 5.6356695e-07, No Iterations 3
GAMG:  Solving for p, Initial residual = 9.5661004e-07, Final residual = 1.6179846e-07, No Iterations 3
time step continuity errors : sum local = 2.063992e-10, global = 1.9758359e-11, cumulative = -2.2529474e-08
ExecutionTime = 7.38 s  ClockTime = 8 s

forceCoeffs forceCoeffs_object write:
    Cm    = -1.2444099e-09
    Cd    = 1.6207001
    Cl    = -1.2056018e-08
    Cl(f) = -7.272419e-09
    Cl(r) = -4.7835993e-09

fieldMinMax minmaxdomain write:
    min(p) = -0.46426401 in cell 7815 at location (-0.040619337 -1.033408 0)
    max(p) = 0.61395207 in cell 7783 at location (-1.033408 0.040619337 1.5208403e-17)
    min(U) = (0.21700349 -0.32543824 -3.2231112e-19) in cell 8171 at location (-0.96417992 -0.53993983 1.2345237e-17)
    max(U) = (1.1941902 0.21856007 1.1880161e-19) in cell 4428 at location (0.42727634 2.1464795 3.1731817e-17)

Time = 291

DILUPBiCG:  Solving for Ux, Initial residual = 1.0096021e-05, Final residual = 8.2141085e-09, No Iterations 3
DILUPBiCG:  Solving for Uy, Initial residual = 1.8495279e-05, Final residual = 4.9917273e-09, No Iterations 3
GAMG:  Solving for p, Initial residual = 3.0258346e-05, Final residual = 8.3961751e-07, No Iterations 6
GAMG:  Solving for p, Initial residual = 3.7128402e-06, Final residual = 5.484955e-07, No Iterations 3
GAMG:  Solving for p, Initial residual = 9.3082531e-07, Final residual = 1.5738444e-07, No Iterations 3
time step continuity errors : sum local = 2.0074278e-10, global = 1.9221354e-11, cumulative = -2.2510252e-08
ExecutionTime = 7.39 s  ClockTime = 8 s

forceCoeffs forceCoeffs_object write:
    Cm    = -1.2982848e-09
    Cd    = 1.6206956
    Cl    = -1.3324399e-08
    Cl(f) = -7.9604844e-09
    Cl(r) = -5.3639148e-09

fieldMinMax minmaxdomain write:
    min(p) = -0.46425507 in cell 7815 at location (-0.040619337 -1.033408 0)
    max(p) = 0.6139569 in cell 7783 at location (-1.033408 0.040619337 1.5208403e-17)
    min(U) = (0.21700289 -0.3254374 -3.2231014e-19) in cell 8171 at location (-0.96417992 -0.53993983 1.2345237e-17)
    max(U) = (1.1941869 0.21856151 1.1880082e-19) in cell 4428 at location (0.42727634 2.1464795 3.1731817e-17)

Time = 292

DILUPBiCG:  Solving for Ux, Initial residual = 9.8254646e-06, Final residual = 7.9927084e-09, No Iterations 3
DILUPBiCG:  Solving for Uy, Initial residual = 1.8001012e-05, Final residual = 4.8573977e-09, No Iterations 3
GAMG:  Solving for p, Initial residual = 2.9469256e-05, Final residual = 8.1738217e-07, No Iterations 6
GAMG:  Solving for p, Initial residual = 3.6169391e-06, Final residual = 5.3404574e-07, No Iterations 3
GAMG:  Solving for p, Initial residual = 9.0602653e-07, Final residual = 1.5313052e-07, No Iterations 3
time step continuity errors : sum local = 1.9529271e-10, global = 1.8714639e-11, cumulative = -2.2491538e-08
ExecutionTime = 7.41 s  ClockTime = 8 s

forceCoeffs forceCoeffs_object write:
    Cm    = -1.3456395e-09
    Cd    = 1.6206912
    Cl    = -1.106356e-08
    Cl(f) = -6.8774196e-09
    Cl(r) = -4.1861406e-09

fieldMinMax minmaxdomain write:
    min(p) = -0.46424637 in cell 7815 at location (-0.040619337 -1.033408 0)
    max(p) = 0.61396159 in cell 7783 at location (-1.033408 0.040619337 1.5208403e-17)
    min(U) = (0.21700231 -0.32543659 -3.2230919e-19) in cell 8171 at location (-0.96417992 -0.53993983 1.2345237e-17)
    max(U) = (1.1941838 0.21856291 1.1880005e-19) in cell 4428 at location (0.42727634 2.1464795 3.1731817e-17)

Time = 293

DILUPBiCG:  Solving for Ux, Initial residual = 9.5620105e-06, Final residual = 7.7785797e-09, No Iterations 3
DILUPBiCG:  Solving for Uy, Initial residual = 1.7519908e-05, Final residual = 4.7262909e-09, No Iterations 3
GAMG:  Solving for p, Initial residual = 2.8691444e-05, Final residual = 7.9591011e-07, No Iterations 6
GAMG:  Solving for p, Initial residual = 3.5216932e-06, Final residual = 5.199951e-07, No Iterations 3
GAMG:  Solving for p, Initial residual = 8.8203996e-07, Final residual = 1.4907453e-07, No Iterations 3
time step continuity errors : sum local = 1.9009696e-10, global = 1.8228602e-11, cumulative = -2.2473309e-08
ExecutionTime = 7.42 s  ClockTime = 8 s

forceCoeffs forceCoeffs_object write:
    Cm    = -1.3835801e-09
    Cd    = 1.6206869
    Cl    = -7.7141451e-09
    Cl(f) = -5.2406526e-09
    Cl(r) = -2.4734925e-09

fieldMinMax minmaxdomain write:
    min(p) = -0.46423791 in cell 7815 at location (-0.040619337 -1.033408 0)
    max(p) = 0.61396615 in cell 7783 at location (-1.033408 0.040619337 1.5208403e-17)
    min(U) = (0.21700175 -0.3254358 -3.2230827e-19) in cell 8171 at location (-0.96417992 -0.53993983 1.2345237e-17)
    max(U) = (1.1941807 0.21856427 1.187993e-19) in cell 4428 at location (0.42727634 2.1464795 3.1731817e-17)

Time = 294

DILUPBiCG:  Solving for Ux, Initial residual = 9.305581e-06, Final residual = 7.5706147e-09, No Iterations 3
DILUPBiCG:  Solving for Uy, Initial residual = 1.7051423e-05, Final residual = 4.5984133e-09, No Iterations 3
GAMG:  Solving for p, Initial residual = 2.7924859e-05, Final residual = 7.7491262e-07, No Iterations 6
GAMG:  Solving for p, Initial residual = 3.4268025e-06, Final residual = 5.0619041e-07, No Iterations 3
GAMG:  Solving for p, Initial residual = 8.5864783e-07, Final residual = 1.4516618e-07, No Iterations 3
time step continuity errors : sum local = 1.8509125e-10, global = 1.7750669e-11, cumulative = -2.2455558e-08
ExecutionTime = 7.43 s  ClockTime = 8 s

forceCoeffs forceCoeffs_object write:
    Cm    = -1.4159388e-09
    Cd    = 1.6206827
    Cl    = -5.88999e-09
    Cl(f) = -4.3609338e-09
    Cl(r) = -1.5290561e-09

fieldMinMax minmaxdomain write:
    min(p) = -0.46422967 in cell 7815 at location (-0.040619337 -1.033408 0)
    max(p) = 0.61397059 in cell 7783 at location (-1.033408 0.040619337 1.5208403e-17)
    min(U) = (0.2170012 -0.32543503 -3.2230737e-19) in cell 8171 at location (-0.96417992 -0.53993983 1.2345237e-17)
    max(U) = (1.1941776 0.21856559 1.1879857e-19) in cell 4428 at location (0.42727634 2.1464795 3.1731817e-17)

Time = 295

DILUPBiCG:  Solving for Ux, Initial residual = 9.0560987e-06, Final residual = 7.3680419e-09, No Iterations 3
DILUPBiCG:  Solving for Uy, Initial residual = 1.6595229e-05, Final residual = 4.4739416e-09, No Iterations 3
GAMG:  Solving for p, Initial residual = 2.7176886e-05, Final residual = 7.542632e-07, No Iterations 6
GAMG:  Solving for p, Initial residual = 3.3339523e-06, Final residual = 4.9262396e-07, No Iterations 3
GAMG:  Solving for p, Initial residual = 8.3573574e-07, Final residual = 1.4132758e-07, No Iterations 3
time step continuity errors : sum local = 1.8017619e-10, global = 1.7276226e-11, cumulative = -2.2438282e-08
ExecutionTime = 7.45 s  ClockTime = 8 s

forceCoeffs forceCoeffs_object write:
    Cm    = -1.4480066e-09
    Cd    = 1.6206787
    Cl    = -5.9670015e-09
    Cl(f) = -4.4315074e-09
    Cl(r) = -1.5354941e-09

fieldMinMax minmaxdomain write:
    min(p) = -0.46422165 in cell 7815 at location (-0.040619337 -1.033408 0)
    max(p) = 0.61397492 in cell 7783 at location (-1.033408 0.040619337 1.5208403e-17)
    min(U) = (0.21700067 -0.32543429 -3.2230649e-19) in cell 8171 at location (-0.96417992 -0.53993983 1.2345237e-17)
    max(U) = (1.1941747 0.21856689 1.1879786e-19) in cell 4428 at location (0.42727634 2.1464795 3.1731817e-17)

Time = 296

DILUPBiCG:  Solving for Ux, Initial residual = 8.8133829e-06, Final residual = 7.1704291e-09, No Iterations 3
DILUPBiCG:  Solving for Uy, Initial residual = 1.6151195e-05, Final residual = 4.3529926e-09, No Iterations 3
GAMG:  Solving for p, Initial residual = 2.6453169e-05, Final residual = 7.3402546e-07, No Iterations 6
GAMG:  Solving for p, Initial residual = 3.2445395e-06, Final residual = 4.7938431e-07, No Iterations 3
GAMG:  Solving for p, Initial residual = 8.1332928e-07, Final residual = 1.3752965e-07, No Iterations 3
time step continuity errors : sum local = 1.7531466e-10, global = 1.6809692e-11, cumulative = -2.2421472e-08
ExecutionTime = 7.46 s  ClockTime = 8 s

forceCoeffs forceCoeffs_object write:
    Cm    = -1.4816427e-09
    Cd    = 1.6206747
    Cl    = -6.5139816e-09
    Cl(f) = -4.7386335e-09
    Cl(r) = -1.775348e-09

fieldMinMax minmaxdomain write:
    min(p) = -0.46421385 in cell 7815 at location (-0.040619337 -1.033408 0)
    max(p) = 0.61397913 in cell 7783 at location (-1.033408 0.040619337 1.5208403e-17)
    min(U) = (0.21700015 -0.32543356 -3.2230564e-19) in cell 8171 at location (-0.96417992 -0.53993983 1.2345237e-17)
    max(U) = (1.1941718 0.21856814 1.1879716e-19) in cell 4428 at location (0.42727634 2.1464795 3.1731817e-17)

Time = 297

DILUPBiCG:  Solving for Ux, Initial residual = 8.5771809e-06, Final residual = 6.9778905e-09, No Iterations 3
DILUPBiCG:  Solving for Uy, Initial residual = 1.5719181e-05, Final residual = 4.2355161e-09, No Iterations 3
GAMG:  Solving for p, Initial residual = 2.5752782e-05, Final residual = 7.1433221e-07, No Iterations 6
GAMG:  Solving for p, Initial residual = 3.1585233e-06, Final residual = 4.6655235e-07, No Iterations 3
GAMG:  Solving for p, Initial residual = 7.915202e-07, Final residual = 1.3380601e-07, No Iterations 3
time step continuity errors : sum local = 1.7054945e-10, global = 1.6357296e-11, cumulative = -2.2405115e-08
ExecutionTime = 7.48 s  ClockTime = 8 s

forceCoeffs forceCoeffs_object write:
    Cm    = -1.5148148e-09
    Cd    = 1.6206709
    Cl    = -6.1996673e-09
    Cl(f) = -4.6146484e-09
    Cl(r) = -1.5850189e-09

fieldMinMax minmaxdomain write:
    min(p) = -0.46420625 in cell 7815 at location (-0.040619337 -1.033408 0)
    max(p) = 0.61398323 in cell 7783 at location (-1.033408 0.040619337 1.5208403e-17)
    min(U) = (0.21699964 -0.32543285 -3.2230481e-19) in cell 8171 at location (-0.96417992 -0.53993983 1.2345237e-17)
    max(U) = (1.1941691 0.21856936 1.1879649e-19) in cell 4428 at location (0.42727634 2.1464795 3.1731817e-17)

Time = 298

DILUPBiCG:  Solving for Ux, Initial residual = 8.3472644e-06, Final residual = 6.7907636e-09, No Iterations 3
DILUPBiCG:  Solving for Uy, Initial residual = 1.5298861e-05, Final residual = 4.121326e-09, No Iterations 3
GAMG:  Solving for p, Initial residual = 2.507109e-05, Final residual = 9.8466676e-07, No Iterations 5
GAMG:  Solving for p, Initial residual = 3.2896389e-06, Final residual = 5.6196118e-07, No Iterations 3
GAMG:  Solving for p, Initial residual = 8.9248811e-07, Final residual = 1.389138e-07, No Iterations 3
time step continuity errors : sum local = 1.7704125e-10, global = -4.0709876e-11, cumulative = -2.2445825e-08
ExecutionTime = 7.49 s  ClockTime = 8 s

forceCoeffs forceCoeffs_object write:
    Cm    = -1.5457226e-09
    Cd    = 1.6206671
    Cl    = -6.8887875e-09
    Cl(f) = -4.9901163e-09
    Cl(r) = -1.8986712e-09

fieldMinMax minmaxdomain write:
    min(p) = -0.46419887 in cell 7815 at location (-0.040619337 -1.033408 0)
    max(p) = 0.6139872 in cell 7783 at location (-1.033408 0.040619337 1.5208403e-17)
    min(U) = (0.21699915 -0.32543216 -3.22304e-19) in cell 8171 at location (-0.96417992 -0.53993983 1.2345237e-17)
    max(U) = (1.1941664 0.21857055 1.1879584e-19) in cell 4428 at location (0.42727634 2.1464795 3.1731817e-17)

Time = 299

DILUPBiCG:  Solving for Ux, Initial residual = 8.1231676e-06, Final residual = 6.5909948e-09, No Iterations 3
DILUPBiCG:  Solving for Uy, Initial residual = 1.4889458e-05, Final residual = 4.0107724e-09, No Iterations 3
GAMG:  Solving for p, Initial residual = 2.4404929e-05, Final residual = 9.5591822e-07, No Iterations 5
GAMG:  Solving for p, Initial residual = 3.2010368e-06, Final residual = 5.4672281e-07, No Iterations 3
GAMG:  Solving for p, Initial residual = 8.678808e-07, Final residual = 1.3532366e-07, No Iterations 3
time step continuity errors : sum local = 1.7244779e-10, global = -3.9475702e-11, cumulative = -2.2485301e-08
ExecutionTime = 7.5 s  ClockTime = 8 s

forceCoeffs forceCoeffs_object write:
    Cm    = -1.5739211e-09
    Cd    = 1.6206635
    Cl    = -5.0231609e-09
    Cl(f) = -4.0855016e-09
    Cl(r) = -9.3765933e-10

fieldMinMax minmaxdomain write:
    min(p) = -0.46419168 in cell 7815 at location (-0.040619337 -1.033408 0)
    max(p) = 0.61399108 in cell 7783 at location (-1.033408 0.040619337 1.5208403e-17)
    min(U) = (0.21699867 -0.32543149 -3.2230322e-19) in cell 8171 at location (-0.96417992 -0.53993983 1.2345237e-17)
    max(U) = (1.1941637 0.21857171 1.187952e-19) in cell 4428 at location (0.42727634 2.1464795 3.1731817e-17)

Time = 300

DILUPBiCG:  Solving for Ux, Initial residual = 7.9054735e-06, Final residual = 6.4016709e-09, No Iterations 3
DILUPBiCG:  Solving for Uy, Initial residual = 1.4491151e-05, Final residual = 3.9024958e-09, No Iterations 3
GAMG:  Solving for p, Initial residual = 2.3753393e-05, Final residual = 9.278612e-07, No Iterations 5
GAMG:  Solving for p, Initial residual = 3.1135807e-06, Final residual = 5.3153007e-07, No Iterations 3
GAMG:  Solving for p, Initial residual = 8.4371504e-07, Final residual = 1.3174922e-07, No Iterations 3
time step continuity errors : sum local = 1.6787579e-10, global = -3.8278406e-11, cumulative = -2.2523579e-08
ExecutionTime = 7.54 s  ClockTime = 8 s

forceCoeffs forceCoeffs_object write:
    Cm    = -1.59528e-09
    Cd    = 1.62066
    Cl    = -2.5542948e-09
    Cl(f) = -2.8724274e-09
    Cl(r) = 3.1813257e-10

fieldMinMax minmaxdomain write:
    min(p) = -0.46418466 in cell 6000 at location (-0.040619337 1.033408 0)
    max(p) = 0.61399488 in cell 7783 at location (-1.033408 0.040619337 1.5208403e-17)
    min(U) = (0.2169982 -0.32543084 -3.2230245e-19) in cell 8171 at location (-0.96417992 -0.53993983 1.2345237e-17)
    max(U) = (1.1941612 0.21857283 1.1879458e-19) in cell 4428 at location (0.42727634 2.1464795 3.1731817e-17)

End

