/*---------------------------------------------------------------------------*\
| =========                 |                                                 |
| \\      /  F ield         | OpenFOAM: The Open Source CFD Toolbox           |
|  \\    /   O peration     | Version:  2.4.x                                 |
|   \\  /    A nd           | Web:      www.OpenFOAM.org                      |
|    \\/     M anipulation  |                                                 |
\*---------------------------------------------------------------------------*/
Build  : 2.4.x-1f8494e10c21
Exec   : simpleFoam
Date   : Aug 23 2015
Time   : 10:51:57
Host   : "linux-ufjf"
PID    : 8713
Case   : /home/joegi/my_cases_course/of_course_tutorials/z_first_tutorial/z_vortex_shedding/zc11
nProcs : 1
sigFpe : Enabling floating point exception trapping (FOAM_SIGFPE).
fileModificationChecking : Monitoring run-time modified files using timeStampMaster
allowSystemOperations : Allowing user-supplied system call operations

// * * * * * * * * * * * * * * * * * * * * * * * * * * * * * * * * * * * * * //
Create time

Create mesh for time = 0

Reading field p

Reading field U

Reading/calculating face flux field phi

Selecting incompressible transport model Newtonian
Selecting RAS turbulence model laminar
No finite volume options present


SIMPLE: convergence criteria
    field p	 tolerance 1e-05
    field U	 tolerance 1e-05


Starting time loop

fieldAverage fieldAverage:
    Starting averaging at time 0

forceCoeffs forceCoeffs_object:
    Not including porosity effects

Time = 1

DILUPBiCG:  Solving for Ux, Initial residual = 1, Final residual = 2.8433903e-09, No Iterations 8
DILUPBiCG:  Solving for Uy, Initial residual = 1, Final residual = 3.974331e-09, No Iterations 8
GAMG:  Solving for p, Initial residual = 1, Final residual = 0.00056581027, No Iterations 13
GAMG:  Solving for p, Initial residual = 0.046604504, Final residual = 3.1433967e-05, No Iterations 10
GAMG:  Solving for p, Initial residual = 0.0093080801, Final residual = 7.8460263e-06, No Iterations 9
time step continuity errors : sum local = 3.5471736e-07, global = 1.6072182e-08, cumulative = 1.6072182e-08
ExecutionTime = 0.11 s  ClockTime = 0 s

forceCoeffs forceCoeffs_object output:
    Cm    = 4.275869e-08
    Cd    = 43.596011
    Cl    = 1.5368223e-05
    Cl(f) = 7.7268702e-06
    Cl(r) = 7.6413528e-06

fieldMinMax minmaxdomain output:
    min(p) = -11.174134 at location (1.033408 0.040619337 1.3642833e-17)
    max(p) = 12.588541 at location (-1.033408 -0.040619337 -1.5206571e-17)
    min(U) = (0.91342123 -0.12095294 -5.9078657e-18) at location (1.2470702 0.83310466 7.104925e-18)
    max(U) = (1.1190258 0.017393877 1.7327971e-18) at location (-0.049259813 1.252597 1.0286745e-17)

Time = 2

DILUPBiCG:  Solving for Ux, Initial residual = 0.47401634, Final residual = 2.9572478e-09, No Iterations 8
DILUPBiCG:  Solving for Uy, Initial residual = 0.60768988, Final residual = 6.4077373e-09, No Iterations 9
GAMG:  Solving for p, Initial residual = 0.10829524, Final residual = 0.00010243065, No Iterations 12
GAMG:  Solving for p, Initial residual = 0.10340779, Final residual = 8.3869613e-05, No Iterations 10
GAMG:  Solving for p, Initial residual = 0.040483136, Final residual = 2.1832107e-05, No Iterations 10
time step continuity errors : sum local = 6.0212076e-08, global = -1.3201347e-08, cumulative = 2.8708355e-09
ExecutionTime = 0.15 s  ClockTime = 0 s

forceCoeffs forceCoeffs_object output:
    Cm    = 2.4784253e-08
    Cd    = 30.364994
    Cl    = -2.8892196e-06
    Cl(f) = -1.4198256e-06
    Cl(r) = -1.4693941e-06

fieldMinMax minmaxdomain output:
    min(p) = -7.3546043 at location (1.0144308 -0.20179876 -1.4387383e-17)
    max(p) = 8.9329456 at location (-1.033408 0.040619337 1.5208403e-17)
    min(U) = (0.66332573 -0.53284061 -4.5685711e-18) at location (1.2470702 0.83310466 7.104925e-18)
    max(U) = (1.2464275 0.12602637 1.6937659e-18) at location (-0.2200932 1.8576508 6.2235303e-17)

Time = 3

DILUPBiCG:  Solving for Ux, Initial residual = 0.16548603, Final residual = 1.191373e-09, No Iterations 8
DILUPBiCG:  Solving for Uy, Initial residual = 0.22304659, Final residual = 9.2690594e-10, No Iterations 9
GAMG:  Solving for p, Initial residual = 0.22744807, Final residual = 0.00017269336, No Iterations 13
GAMG:  Solving for p, Initial residual = 0.052134162, Final residual = 3.7310032e-05, No Iterations 10
GAMG:  Solving for p, Initial residual = 0.010544407, Final residual = 9.9940956e-06, No Iterations 9
time step continuity errors : sum local = 3.4980764e-07, global = -4.6867183e-08, cumulative = -4.3996348e-08
ExecutionTime = 0.19 s  ClockTime = 0 s

forceCoeffs forceCoeffs_object output:
    Cm    = -3.3494867e-08
    Cd    = -1.3032624
    Cl    = -2.3360125e-05
    Cl(f) = -1.1713557e-05
    Cl(r) = -1.1646567e-05

fieldMinMax minmaxdomain output:
    min(p) = -2.4529379 at location (-0.040619337 -1.033408 0)
    max(p) = 1.991386 at location (1.1768524 0.046273942 3.3047986e-17)
    min(U) = (0.22144174 -0.64597432 -9.8723585e-19) at location (1.2854455 0.59256661 -7.8007e-18)
    max(U) = (1.5288742 0.30202576 1.1853557e-18) at location (-0.13851888 1.1698852 -1.0477148e-17)

Time = 4

DILUPBiCG:  Solving for Ux, Initial residual = 0.030836501, Final residual = 2.2455081e-09, No Iterations 7
DILUPBiCG:  Solving for Uy, Initial residual = 0.053967233, Final residual = 2.2304743e-09, No Iterations 8
GAMG:  Solving for p, Initial residual = 0.25198684, Final residual = 0.00024227626, No Iterations 12
GAMG:  Solving for p, Initial residual = 0.037130963, Final residual = 2.4840887e-05, No Iterations 10
GAMG:  Solving for p, Initial residual = 0.0073798876, Final residual = 6.2781254e-06, No Iterations 9
time step continuity errors : sum local = 1.6715842e-07, global = 6.5678379e-09, cumulative = -3.742851e-08
ExecutionTime = 0.22 s  ClockTime = 0 s

forceCoeffs forceCoeffs_object output:
    Cm    = -5.3872604e-08
    Cd    = -17.330223
    Cl    = -1.2496507e-05
    Cl(f) = -6.302126e-06
    Cl(r) = -6.1943808e-06

fieldMinMax minmaxdomain output:
    min(p) = -5.6437955 at location (-0.99550033 -0.28077103 0)
    max(p) = 6.1115868 at location (1.033408 0.040619337 1.3642833e-17)
    min(U) = (0.36473518 -0.70546879 -3.22048e-18) at location (-0.97973335 -0.65457415 0)
    max(U) = (1.3091084 0.42257446 1.6623178e-18) at location (0.46159383 -1.2511367 0)

Time = 5

DILUPBiCG:  Solving for Ux, Initial residual = 0.13818277, Final residual = 1.5874397e-10, No Iterations 9
DILUPBiCG:  Solving for Uy, Initial residual = 0.25673015, Final residual = 9.8636257e-09, No Iterations 8
GAMG:  Solving for p, Initial residual = 0.14888485, Final residual = 9.6049621e-05, No Iterations 13
GAMG:  Solving for p, Initial residual = 0.091862666, Final residual = 7.2124262e-05, No Iterations 10
GAMG:  Solving for p, Initial residual = 0.019583951, Final residual = 1.8026242e-05, No Iterations 9
time step continuity errors : sum local = 1.1270975e-07, global = 1.6535861e-08, cumulative = -2.0892649e-08
ExecutionTime = 0.27 s  ClockTime = 0 s

forceCoeffs forceCoeffs_object output:
    Cm    = -2.6098706e-08
    Cd    = -9.2890439
    Cl    = 1.500953e-05
    Cl(f) = 7.4786662e-06
    Cl(r) = 7.5308637e-06

fieldMinMax minmaxdomain output:
    min(p) = -3.0333144 at location (-0.93934113 0.43303818 -7.8244782e-19)
    max(p) = 3.1027131 at location (1.033408 -0.040619337 -1.3642223e-17)
    min(U) = (0.55623012 -0.45418837 -1.8684915e-18) at location (-0.97973335 -0.65457415 0)
    max(U) = (1.206496 0.23320359 9.0254973e-19) at location (0.38424125 -1.3621202 -1.5608017e-17)

Time = 6

DILUPBiCG:  Solving for Ux, Initial residual = 0.099772452, Final residual = 6.338929e-09, No Iterations 7
DILUPBiCG:  Solving for Uy, Initial residual = 0.2011896, Final residual = 1.2485329e-09, No Iterations 9
GAMG:  Solving for p, Initial residual = 0.25354235, Final residual = 0.0001849461, No Iterations 13
GAMG:  Solving for p, Initial residual = 0.046735936, Final residual = 3.3740687e-05, No Iterations 10
GAMG:  Solving for p, Initial residual = 0.0094703535, Final residual = 8.7457208e-06, No Iterations 9
time step continuity errors : sum local = 1.9742892e-07, global = 2.634857e-08, cumulative = 5.455921e-09
ExecutionTime = 0.3 s  ClockTime = 0 s

forceCoeffs forceCoeffs_object output:
    Cm    = 1.2526042e-08
    Cd    = 6.7405069
    Cl    = 2.3032138e-05
    Cl(f) = 1.1528595e-05
    Cl(r) = 1.1503543e-05

fieldMinMax minmaxdomain output:
    min(p) = -1.8761369 at location (1.033408 0.040619337 1.3642833e-17)
    max(p) = 2.0210675 at location (-1.033408 -0.040619337 -1.5206571e-17)
    min(U) = (0.66130284 -0.30272635 -1.4225543e-18) at location (-1.2110834 -0.55829114 0)
    max(U) = (1.1963198 0.2241705 3.173799e-19) at location (-0.51933836 1.4076281 0)

Time = 7

DILUPBiCG:  Solving for Ux, Initial residual = 0.057311826, Final residual = 5.1229559e-09, No Iterations 7
DILUPBiCG:  Solving for Uy, Initial residual = 0.11931215, Final residual = 1.2099596e-09, No Iterations 8
GAMG:  Solving for p, Initial residual = 0.26378951, Final residual = 0.00021366287, No Iterations 13
GAMG:  Solving for p, Initial residual = 0.035939686, Final residual = 2.272666e-05, No Iterations 10
GAMG:  Solving for p, Initial residual = 0.0072427097, Final residual = 5.9474679e-06, No Iterations 9
time step continuity errors : sum local = 7.3380603e-08, global = -1.0165837e-08, cumulative = -4.7099158e-09
ExecutionTime = 0.34 s  ClockTime = 1 s

forceCoeffs forceCoeffs_object output:
    Cm    = 1.51916e-08
    Cd    = 13.205397
    Cl    = 3.3603774e-06
    Cl(f) = 1.6953803e-06
    Cl(r) = 1.6649971e-06

fieldMinMax minmaxdomain output:
    min(p) = -3.5593047 at location (1.033408 -0.040619337 -1.3642223e-17)
    max(p) = 3.9379509 at location (-1.033408 -0.040619337 -1.5206571e-17)
    min(U) = (0.6559308 -0.37202937 -2.6946658e-18) at location (-1.3089366 -0.73292961 3.7056392e-17)
    max(U) = (1.2274625 0.084516099 5.0605124e-19) at location (-0.073509572 1.8677584 -5.0905754e-17)

Time = 8

DILUPBiCG:  Solving for Ux, Initial residual = 0.090130708, Final residual = 6.6382103e-09, No Iterations 7
DILUPBiCG:  Solving for Uy, Initial residual = 0.15160612, Final residual = 1.6603844e-09, No Iterations 8
GAMG:  Solving for p, Initial residual = 0.21211859, Final residual = 0.00016497589, No Iterations 13
GAMG:  Solving for p, Initial residual = 0.045521318, Final residual = 3.614903e-05, No Iterations 10
GAMG:  Solving for p, Initial residual = 0.010381344, Final residual = 8.8344481e-06, No Iterations 9
time step continuity errors : sum local = 8.3722705e-08, global = -1.3668909e-08, cumulative = -1.8378824e-08
ExecutionTime = 0.39 s  ClockTime = 1 s

forceCoeffs forceCoeffs_object output:
    Cm    = -2.0631681e-08
    Cd    = 7.4169309
    Cl    = -1.6105901e-05
    Cl(f) = -8.0735823e-06
    Cl(r) = -8.0323189e-06

fieldMinMax minmaxdomain output:
    min(p) = -1.8016681 at location (0.70200781 -0.75945224 0)
    max(p) = 2.0701965 at location (-1.033408 0.040619337 1.5208403e-17)
    min(U) = (0.29962269 -0.39787474 -6.5828184e-19) at location (1.2110834 0.55829114 -2.7323031e-17)
    max(U) = (1.2666602 0.20355611 8.1491181e-19) at location (0.58145417 -1.5759659 1.2565509e-17)

Time = 9

DILUPBiCG:  Solving for Ux, Initial residual = 0.039147389, Final residual = 7.1579279e-09, No Iterations 7
DILUPBiCG:  Solving for Uy, Initial residual = 0.05344704, Final residual = 6.5466806e-09, No Iterations 7
GAMG:  Solving for p, Initial residual = 0.40589077, Final residual = 0.00034756198, No Iterations 13
GAMG:  Solving for p, Initial residual = 0.035944959, Final residual = 2.6283383e-05, No Iterations 10
GAMG:  Solving for p, Initial residual = 0.0075114992, Final residual = 6.6083774e-06, No Iterations 9
time step continuity errors : sum local = 1.0543468e-07, global = -1.6314246e-08, cumulative = -3.469307e-08
ExecutionTime = 0.42 s  ClockTime = 1 s

forceCoeffs forceCoeffs_object output:
    Cm    = -4.9070091e-08
    Cd    = -1.1899123
    Cl    = -1.5532884e-05
    Cl(f) = -7.8155121e-06
    Cl(r) = -7.7173719e-06

fieldMinMax minmaxdomain output:
    min(p) = -1.9345446 at location (-0.12158261 -1.0270928 0)
    max(p) = 1.1920605 at location (1.252597 0.049259813 0)
    min(U) = (0.71395999 -0.50254347 -7.4464678e-19) at location (0.90424813 0.97829159 -3.6053913e-17)
    max(U) = (1.3276065 0.16750153 1.0958526e-18) at location (0.43121241 -1.5285504 -1.4492197e-17)

Time = 10

DILUPBiCG:  Solving for Ux, Initial residual = 0.026552228, Final residual = 2.7776137e-09, No Iterations 7
DILUPBiCG:  Solving for Uy, Initial residual = 0.05471588, Final residual = 9.1048766e-09, No Iterations 7
GAMG:  Solving for p, Initial residual = 0.15860659, Final residual = 9.932032e-05, No Iterations 12
GAMG:  Solving for p, Initial residual = 0.030508577, Final residual = 1.4174869e-05, No Iterations 10
GAMG:  Solving for p, Initial residual = 0.0069123773, Final residual = 5.6098312e-06, No Iterations 9
time step continuity errors : sum local = 3.7760144e-08, global = -5.7229149e-09, cumulative = -4.0415985e-08
ExecutionTime = 0.47 s  ClockTime = 1 s

forceCoeffs forceCoeffs_object output:
    Cm    = -4.772072e-08
    Cd    = -3.9028331
    Cl    = 1.819527e-06
    Cl(f) = 8.6204279e-07
    Cl(r) = 9.5748423e-07

fieldMinMax minmaxdomain output:
    min(p) = -1.9509086 at location (-0.43303818 -0.93934113 -7.8251546e-19)
    max(p) = 1.7777278 at location (1.033408 -0.040619337 -1.3642223e-17)
    min(U) = (0.3668243 -0.38132619 -1.1239142e-18) at location (-1.2511367 -0.46159383 0)
    max(U) = (1.3411512 0.1819819 7.0009784e-19) at location (-0.18668336 1.5759671 2.8257781e-17)

Time = 11

DILUPBiCG:  Solving for Ux, Initial residual = 0.040795565, Final residual = 5.5588133e-09, No Iterations 7
DILUPBiCG:  Solving for Uy, Initial residual = 0.083276903, Final residual = 7.1638427e-09, No Iterations 7
GAMG:  Solving for p, Initial residual = 0.19094358, Final residual = 0.00019056931, No Iterations 12
GAMG:  Solving for p, Initial residual = 0.048794181, Final residual = 3.9982742e-05, No Iterations 10
GAMG:  Solving for p, Initial residual = 0.010860451, Final residual = 8.9090861e-06, No Iterations 9
time step continuity errors : sum local = 5.6498454e-08, global = -6.7681475e-09, cumulative = -4.7184132e-08
ExecutionTime = 0.51 s  ClockTime = 1 s

forceCoeffs forceCoeffs_object output:
    Cm    = -1.642705e-08
    Cd    = -0.37856013
    Cl    = 1.275334e-05
    Cl(f) = 6.3602427e-06
    Cl(r) = 6.3930968e-06

fieldMinMax minmaxdomain output:
    min(p) = -0.78670764 at location (-0.28077103 0.99550033 -1.3594436e-17)
    max(p) = 0.47510972 at location (1.033408 -0.040619337 -1.3642223e-17)
    min(U) = (0.32290469 -0.28525767 -4.1266856e-19) at location (-1.2074024 -0.34057562 0)
    max(U) = (1.1627002 0.17681379 4.3262026e-19) at location (0.38424125 -1.3621202 -1.5608017e-17)

Time = 12

DILUPBiCG:  Solving for Ux, Initial residual = 0.018361031, Final residual = 4.0304306e-09, No Iterations 7
DILUPBiCG:  Solving for Uy, Initial residual = 0.038083548, Final residual = 3.1750336e-09, No Iterations 7
GAMG:  Solving for p, Initial residual = 0.32558936, Final residual = 0.00025526119, No Iterations 13
GAMG:  Solving for p, Initial residual = 0.039579864, Final residual = 2.842647e-05, No Iterations 10
GAMG:  Solving for p, Initial residual = 0.008220387, Final residual = 6.7562248e-06, No Iterations 9
time step continuity errors : sum local = 5.4590192e-08, global = -4.6352406e-09, cumulative = -5.1819373e-08
ExecutionTime = 0.54 s  ClockTime = 1 s

forceCoeffs forceCoeffs_object output:
    Cm    = 7.8407206e-09
    Cd    = 3.9963123
    Cl    = 8.8958064e-06
    Cl(f) = 4.4557439e-06
    Cl(r) = 4.4400625e-06

fieldMinMax minmaxdomain output:
    min(p) = -0.92795828 at location (1.033408 0.040619337 1.3642833e-17)
    max(p) = 1.2956082 at location (-1.033408 -0.040619337 -1.5206571e-17)
    min(U) = (0.50063291 -0.32831897 -7.7082839e-19) at location (-1.3279551 -0.48993943 -1.7163502e-17)
    max(U) = (1.2481361 0.14976254 1.7320102e-19) at location (-0.2200932 1.8576508 6.2235303e-17)

Time = 13

DILUPBiCG:  Solving for Ux, Initial residual = 0.026050947, Final residual = 3.4113226e-10, No Iterations 8
DILUPBiCG:  Solving for Uy, Initial residual = 0.053613177, Final residual = 3.8095445e-09, No Iterations 7
GAMG:  Solving for p, Initial residual = 0.28033489, Final residual = 0.00022019203, No Iterations 12
GAMG:  Solving for p, Initial residual = 0.068861966, Final residual = 6.206706e-05, No Iterations 9
GAMG:  Solving for p, Initial residual = 0.017477018, Final residual = 1.025798e-05, No Iterations 9
time step continuity errors : sum local = 1.8346427e-08, global = -2.7466473e-09, cumulative = -5.456602e-08
ExecutionTime = 0.58 s  ClockTime = 1 s

forceCoeffs forceCoeffs_object output:
    Cm    = 4.346354e-09
    Cd    = 4.955136
    Cl    = -3.2107523e-06
    Cl(f) = -1.6010298e-06
    Cl(r) = -1.6097225e-06

fieldMinMax minmaxdomain output:
    min(p) = -1.1372203 at location (1.033408 -0.040619337 -1.3642223e-17)
    max(p) = 1.4784775 at location (-1.033408 0.040619337 1.5208403e-17)
    min(U) = (0.44413432 -0.34812626 -8.3515244e-19) at location (-1.3279551 -0.48993943 -1.7163502e-17)
    max(U) = (1.2508403 0.1281897 3.872989e-19) at location (-0.07750751 1.9691766 0)

Time = 14

DILUPBiCG:  Solving for Ux, Initial residual = 0.027009182, Final residual = 1.9501949e-09, No Iterations 7
DILUPBiCG:  Solving for Uy, Initial residual = 0.045028758, Final residual = 4.1060827e-09, No Iterations 7
GAMG:  Solving for p, Initial residual = 0.33466273, Final residual = 0.00025879587, No Iterations 13
GAMG:  Solving for p, Initial residual = 0.029226254, Final residual = 2.2126378e-05, No Iterations 10
GAMG:  Solving for p, Initial residual = 0.0066661347, Final residual = 4.767301e-06, No Iterations 9
time step continuity errors : sum local = 3.1662006e-08, global = -5.0239755e-09, cumulative = -5.9589996e-08
ExecutionTime = 0.63 s  ClockTime = 1 s

forceCoeffs forceCoeffs_object output:
    Cm    = -1.6534894e-08
    Cd    = 2.7905158
    Cl    = -8.9211309e-06
    Cl(f) = -4.4771003e-06
    Cl(r) = -4.4440305e-06

fieldMinMax minmaxdomain output:
    min(p) = -1.072627 at location (0.28077103 -0.99550033 1.4377222e-17)
    max(p) = 0.75035601 at location (-1.033408 0.040619337 1.5208403e-17)
    min(U) = (0.40678053 -0.3642668 -4.9040939e-19) at location (-1.3279551 -0.48993943 -1.7163502e-17)
    max(U) = (1.2660352 0.14448342 6.6171755e-19) at location (-0.07750751 1.9691766 0)

Time = 15

DILUPBiCG:  Solving for Ux, Initial residual = 0.012098352, Final residual = 8.7234331e-09, No Iterations 6
DILUPBiCG:  Solving for Uy, Initial residual = 0.016392193, Final residual = 1.7455106e-09, No Iterations 7
GAMG:  Solving for p, Initial residual = 0.23654473, Final residual = 0.00020941933, No Iterations 12
GAMG:  Solving for p, Initial residual = 0.026040285, Final residual = 1.7211526e-05, No Iterations 10
GAMG:  Solving for p, Initial residual = 0.0056456328, Final residual = 4.0266015e-06, No Iterations 9
time step continuity errors : sum local = 2.516732e-08, global = 1.8674147e-09, cumulative = -5.7722581e-08
ExecutionTime = 0.67 s  ClockTime = 1 s

forceCoeffs forceCoeffs_object output:
    Cm    = -3.134774e-08
    Cd    = 0.50167007
    Cl    = -4.6089928e-06
    Cl(f) = -2.3358441e-06
    Cl(r) = -2.2731486e-06

fieldMinMax minmaxdomain output:
    min(p) = -1.2830705 at location (-0.040619337 -1.033408 0)
    max(p) = 0.38310802 at location (1.4971418 -0.058899816 0)
    min(U) = (0.23957257 -0.30822472 -5.3032534e-19) at location (-1.2074024 -0.34057562 0)
    max(U) = (1.2750392 0.1410087 6.8167996e-19) at location (-0.07750751 1.9691766 0)

Time = 16

DILUPBiCG:  Solving for Ux, Initial residual = 0.011694334, Final residual = 1.5089995e-10, No Iterations 8
DILUPBiCG:  Solving for Uy, Initial residual = 0.027906101, Final residual = 3.3217451e-09, No Iterations 7
GAMG:  Solving for p, Initial residual = 0.14603374, Final residual = 0.00014487267, No Iterations 10
GAMG:  Solving for p, Initial residual = 0.047427355, Final residual = 3.597594e-05, No Iterations 9
GAMG:  Solving for p, Initial residual = 0.013175089, Final residual = 8.2566644e-06, No Iterations 9
time step continuity errors : sum local = 1.3293303e-08, global = 1.4037545e-09, cumulative = -5.6318827e-08
ExecutionTime = 0.71 s  ClockTime = 1 s

forceCoeffs forceCoeffs_object output:
    Cm    = -2.9040793e-08
    Cd    = 0.16194922
    Cl    = 2.5124184e-06
    Cl(f) = 1.2271684e-06
    Cl(r) = 1.28525e-06

fieldMinMax minmaxdomain output:
    min(p) = -1.0583436 at location (-0.12158261 1.0270928 0)
    max(p) = 0.3985806 at location (1.033408 -0.040619337 -1.3642223e-17)
    min(U) = (0.26988935 -0.30258728 -4.6645069e-19) at location (-1.2074024 -0.34057562 0)
    max(U) = (1.2738552 0.13304369 4.7989725e-19) at location (-0.07750751 1.9691766 0)

Time = 17

DILUPBiCG:  Solving for Ux, Initial residual = 0.011519789, Final residual = 3.78654e-09, No Iterations 7
DILUPBiCG:  Solving for Uy, Initial residual = 0.026633948, Final residual = 2.0990026e-09, No Iterations 7
GAMG:  Solving for p, Initial residual = 0.18241327, Final residual = 0.00011929041, No Iterations 12
GAMG:  Solving for p, Initial residual = 0.043664929, Final residual = 2.8857112e-05, No Iterations 10
GAMG:  Solving for p, Initial residual = 0.0096129015, Final residual = 6.146326e-06, No Iterations 9
time step continuity errors : sum local = 1.7985257e-08, global = 6.6732229e-10, cumulative = -5.5651504e-08
ExecutionTime = 0.75 s  ClockTime = 1 s

forceCoeffs forceCoeffs_object output:
    Cm    = -1.3814138e-08
    Cd    = 1.3897491
    Cl    = 5.9494944e-06
    Cl(f) = 2.960933e-06
    Cl(r) = 2.9885613e-06

fieldMinMax minmaxdomain output:
    min(p) = -0.63020905 at location (-0.040619337 1.033408 0)
    max(p) = 0.53188404 at location (-1.033408 -0.040619337 -1.5206571e-17)
    min(U) = (0.46695724 -0.35054326 -4.1691768e-19) at location (-1.3279551 -0.48993943 -1.7163502e-17)
    max(U) = (1.2583598 0.086399817 3.7986494e-19) at location (0.081653961 2.0743633 2.6339295e-17)

Time = 18

DILUPBiCG:  Solving for Ux, Initial residual = 0.0092128365, Final residual = 5.0605258e-09, No Iterations 6
DILUPBiCG:  Solving for Uy, Initial residual = 0.020435136, Final residual = 2.8270601e-09, No Iterations 7
GAMG:  Solving for p, Initial residual = 0.27136308, Final residual = 0.00021798838, No Iterations 14
GAMG:  Solving for p, Initial residual = 0.045775332, Final residual = 2.6813551e-05, No Iterations 10
GAMG:  Solving for p, Initial residual = 0.010082445, Final residual = 6.6778488e-06, No Iterations 9
time step continuity errors : sum local = 1.3772503e-08, global = 2.9501425e-09, cumulative = -5.2701362e-08
ExecutionTime = 0.78 s  ClockTime = 1 s

forceCoeffs forceCoeffs_object output:
    Cm    = -2.754419e-10
    Cd    = 2.5428085
    Cl    = 2.5675874e-06
    Cl(f) = 1.2835183e-06
    Cl(r) = 1.2840691e-06

fieldMinMax minmaxdomain output:
    min(p) = -0.50287091 at location (0.20179876 1.0144308 4.2381527e-17)
    max(p) = 0.84893999 at location (-1.033408 -0.040619337 -1.5206571e-17)
    min(U) = (0.45781124 -0.35301085 -5.4646707e-19) at location (-1.3279551 -0.48993943 -1.7163502e-17)
    max(U) = (1.2642763 0.15152436 3.0684576e-19) at location (-0.07750751 1.9691766 0)

Time = 19

DILUPBiCG:  Solving for Ux, Initial residual = 0.012185828, Final residual = 7.6556628e-10, No Iterations 7
DILUPBiCG:  Solving for Uy, Initial residual = 0.023096424, Final residual = 3.570528e-09, No Iterations 7
GAMG:  Solving for p, Initial residual = 0.47124476, Final residual = 0.0003269796, No Iterations 11
GAMG:  Solving for p, Initial residual = 0.029460391, Final residual = 2.1680883e-05, No Iterations 10
GAMG:  Solving for p, Initial residual = 0.0068550958, Final residual = 5.3134816e-06, No Iterations 9
time step continuity errors : sum local = 1.19575e-08, global = -9.2842829e-10, cumulative = -5.362979e-08
ExecutionTime = 0.82 s  ClockTime = 1 s

forceCoeffs forceCoeffs_object output:
    Cm    = -8.8355693e-10
    Cd    = 2.6140214
    Cl    = -1.7369125e-06
    Cl(f) = -8.6933982e-07
    Cl(r) = -8.6757271e-07

fieldMinMax minmaxdomain output:
    min(p) = -0.69603914 at location (0.28077103 -0.99550033 1.4377222e-17)
    max(p) = 0.80336782 at location (-1.033408 0.040619337 1.5208403e-17)
    min(U) = (0.44015067 -0.3588667 -5.1251422e-19) at location (-1.3279551 -0.48993943 -1.7163502e-17)
    max(U) = (1.2667249 0.16713801 4.519445e-19) at location (-0.07750751 1.9691766 0)

Time = 20

DILUPBiCG:  Solving for Ux, Initial residual = 0.010580053, Final residual = 9.4235918e-09, No Iterations 6
DILUPBiCG:  Solving for Uy, Initial residual = 0.01417063, Final residual = 2.0168573e-09, No Iterations 7
GAMG:  Solving for p, Initial residual = 0.25183508, Final residual = 0.00017102831, No Iterations 13
GAMG:  Solving for p, Initial residual = 0.01938657, Final residual = 1.2609814e-05, No Iterations 10
GAMG:  Solving for p, Initial residual = 0.0044205499, Final residual = 2.8298105e-06, No Iterations 9
time step continuity errors : sum local = 1.0594034e-08, global = -1.3759265e-09, cumulative = -5.5005717e-08
ExecutionTime = 0.86 s  ClockTime = 1 s

fieldAverage fieldAverage:
    Reading/initialising field UMean
    Reading/initialising field pMean
    Reading/initialising field UPrime2Mean
    Reading/initialising field pPrime2Mean

fieldAverage fieldAverage output:
    Calculating averages

forceCoeffs forceCoeffs_object output:
    Cm    = -1.0155014e-08
    Cd    = 1.9041481
    Cl    = -3.6496974e-06
    Cl(f) = -1.8350037e-06
    Cl(r) = -1.8146937e-06

fieldMinMax minmaxdomain output:
    min(p) = -0.8931619 at location (0.12158261 -1.0270928 -2.7242997e-17)
    max(p) = 0.56472292 at location (-1.033408 0.040619337 1.5208403e-17)
    min(U) = (0.43377748 -0.36210216 -4.0509491e-19) at location (-1.3279551 -0.48993943 -1.7163502e-17)
    max(U) = (1.2726058 0.17435805 5.6132556e-19) at location (-0.07750751 1.9691766 0)

Time = 21

DILUPBiCG:  Solving for Ux, Initial residual = 0.0069274226, Final residual = 4.4208273e-09, No Iterations 6
DILUPBiCG:  Solving for Uy, Initial residual = 0.0099179296, Final residual = 1.092302e-09, No Iterations 7
GAMG:  Solving for p, Initial residual = 0.11674266, Final residual = 0.00010788037, No Iterations 12
GAMG:  Solving for p, Initial residual = 0.017417838, Final residual = 8.053916e-06, No Iterations 10
GAMG:  Solving for p, Initial residual = 0.0040770705, Final residual = 2.3479144e-06, No Iterations 9
time step continuity errors : sum local = 6.3035242e-09, global = -1.4369312e-09, cumulative = -5.6442648e-08
ExecutionTime = 0.9 s  ClockTime = 1 s

fieldAverage fieldAverage output:
    Calculating averages

forceCoeffs forceCoeffs_object output:
    Cm    = -1.8330736e-08
    Cd    = 1.3036937
    Cl    = -1.2984325e-06
    Cl(f) = -6.6754696e-07
    Cl(r) = -6.3088549e-07

fieldMinMax minmaxdomain output:
    min(p) = -0.92901176 at location (-0.040619337 -1.033408 0)
    max(p) = 0.42107153 at location (-1.033408 0.040619337 1.5208403e-17)
    min(U) = (0.44133527 -0.36128046 -3.5094752e-19) at location (-1.3279551 -0.48993943 -1.7163502e-17)
    max(U) = (1.2771878 0.17471443 5.3782943e-19) at location (-0.07750751 1.9691766 0)

Time = 22

DILUPBiCG:  Solving for Ux, Initial residual = 0.0060546431, Final residual = 6.7226355e-10, No Iterations 7
DILUPBiCG:  Solving for Uy, Initial residual = 0.013709138, Final residual = 8.2793596e-09, No Iterations 6
GAMG:  Solving for p, Initial residual = 0.1157861, Final residual = 5.9283945e-05, No Iterations 11
GAMG:  Solving for p, Initial residual = 0.04020033, Final residual = 2.8378116e-05, No Iterations 10
GAMG:  Solving for p, Initial residual = 0.010943188, Final residual = 9.0986625e-06, No Iterations 9
time step continuity errors : sum local = 8.1260917e-09, global = 3.263972e-10, cumulative = -5.6116251e-08
ExecutionTime = 0.94 s  ClockTime = 1 s

fieldAverage fieldAverage output:
    Calculating averages

forceCoeffs forceCoeffs_object output:
    Cm    = -1.7776793e-08
    Cd    = 1.3028287
    Cl    = 1.2656011e-06
    Cl(f) = 6.1502376e-07
    Cl(r) = 6.5057734e-07

fieldMinMax minmaxdomain output:
    min(p) = -0.79980368 at location (-0.040619337 1.033408 0)
    max(p) = 0.47371837 at location (-1.033408 0.040619337 1.5208403e-17)
    min(U) = (0.45149508 -0.35916307 -3.8246086e-19) at location (-1.3279551 -0.48993943 -1.7163502e-17)
    max(U) = (1.2731552 0.12457234 5.1783698e-19) at location (0.081653961 2.0743633 2.6339295e-17)

Time = 23

DILUPBiCG:  Solving for Ux, Initial residual = 0.00603026, Final residual = 3.0199203e-09, No Iterations 6
DILUPBiCG:  Solving for Uy, Initial residual = 0.013178726, Final residual = 9.4912525e-09, No Iterations 6
GAMG:  Solving for p, Initial residual = 0.11917079, Final residual = 0.00010790644, No Iterations 13
GAMG:  Solving for p, Initial residual = 0.057202098, Final residual = 3.7107864e-05, No Iterations 10
GAMG:  Solving for p, Initial residual = 0.012461087, Final residual = 8.1324684e-06, No Iterations 9
time step continuity errors : sum local = 6.9089915e-09, global = -6.2089044e-10, cumulative = -5.6737141e-08
ExecutionTime = 0.99 s  ClockTime = 1 s

fieldAverage fieldAverage output:
    Calculating averages

forceCoeffs forceCoeffs_object output:
    Cm    = -1.0770733e-08
    Cd    = 1.6965267
    Cl    = 2.2593319e-06
    Cl(f) = 1.1188952e-06
    Cl(r) = 1.1404367e-06

fieldMinMax minmaxdomain output:
    min(p) = -0.6556393 at location (-0.040619337 1.033408 0)
    max(p) = 0.60904504 at location (-1.033408 -0.040619337 -1.5206571e-17)
    min(U) = (0.45419114 -0.35860006 -4.4050264e-19) at location (-1.3279551 -0.48993943 -1.7163502e-17)
    max(U) = (1.2719423 0.13153058 4.301249e-19) at location (0.081653961 2.0743633 2.6339295e-17)

Time = 24

DILUPBiCG:  Solving for Ux, Initial residual = 0.0066389413, Final residual = 3.8090257e-09, No Iterations 6
DILUPBiCG:  Solving for Uy, Initial residual = 0.013037325, Final residual = 9.5003478e-09, No Iterations 6
GAMG:  Solving for p, Initial residual = 0.13137324, Final residual = 9.882315e-05, No Iterations 14
GAMG:  Solving for p, Initial residual = 0.034246738, Final residual = 3.2715377e-05, No Iterations 9
GAMG:  Solving for p, Initial residual = 0.0077708892, Final residual = 6.1613829e-06, No Iterations 9
time step continuity errors : sum local = 6.575693e-09, global = -1.1750536e-09, cumulative = -5.7912195e-08
ExecutionTime = 1.02 s  ClockTime = 1 s

fieldAverage fieldAverage output:
    Calculating averages

forceCoeffs forceCoeffs_object output:
    Cm    = -4.4385195e-09
    Cd    = 2.0027053
    Cl    = 8.5778138e-07
    Cl(f) = 4.2445217e-07
    Cl(r) = 4.3332921e-07

fieldMinMax minmaxdomain output:
    min(p) = -0.63653539 at location (0.040619337 1.033408 0)
    max(p) = 0.67691419 at location (-1.033408 -0.040619337 -1.5206571e-17)
    min(U) = (0.44962275 -0.35985856 -4.6158792e-19) at location (-1.3279551 -0.48993943 -1.7163502e-17)
    max(U) = (1.2716436 0.14105829 4.393538e-19) at location (0.081653961 2.0743633 2.6339295e-17)

Time = 25

DILUPBiCG:  Solving for Ux, Initial residual = 0.0072291488, Final residual = 6.6857711e-10, No Iterations 7
DILUPBiCG:  Solving for Uy, Initial residual = 0.011233517, Final residual = 7.8725581e-09, No Iterations 6
GAMG:  Solving for p, Initial residual = 0.13615301, Final residual = 0.00012803925, No Iterations 11
GAMG:  Solving for p, Initial residual = 0.014346341, Final residual = 1.264395e-05, No Iterations 10
GAMG:  Solving for p, Initial residual = 0.0033043076, Final residual = 1.7968304e-06, No Iterations 10
time step continuity errors : sum local = 3.8188939e-09, global = 9.3144208e-10, cumulative = -5.6980752e-08
ExecutionTime = 1.06 s  ClockTime = 1 s

fieldAverage fieldAverage output:
    Calculating averages

forceCoeffs forceCoeffs_object output:
    Cm    = -4.2840632e-09
    Cd    = 1.9801349
    Cl    = -5.6627466e-07
    Cl(f) = -2.8742139e-07
    Cl(r) = -2.7885326e-07

fieldMinMax minmaxdomain output:
    min(p) = -0.71357284 at location (0.12158261 -1.0270928 -2.7242997e-17)
    max(p) = 0.64058043 at location (-1.033408 -0.040619337 -1.5206571e-17)
    min(U) = (0.44466911 -0.36133054 -4.3870408e-19) at location (-1.3279551 -0.48993943 -1.7163502e-17)
    max(U) = (1.2734751 0.14878934 5.0582514e-19) at location (0.081653961 2.0743633 2.6339295e-17)

Time = 26

DILUPBiCG:  Solving for Ux, Initial residual = 0.0063760848, Final residual = 4.3460283e-09, No Iterations 6
DILUPBiCG:  Solving for Uy, Initial residual = 0.0079877968, Final residual = 6.1400205e-09, No Iterations 6
GAMG:  Solving for p, Initial residual = 0.084886072, Final residual = 8.035502e-05, No Iterations 12
GAMG:  Solving for p, Initial residual = 0.010899157, Final residual = 5.9581854e-06, No Iterations 10
GAMG:  Solving for p, Initial residual = 0.002513225, Final residual = 2.3644967e-06, No Iterations 8
time step continuity errors : sum local = 5.4635068e-09, global = -3.1698019e-10, cumulative = -5.7297733e-08
ExecutionTime = 1.1 s  ClockTime = 1 s

fieldAverage fieldAverage output:
    Calculating averages

forceCoeffs forceCoeffs_object output:
    Cm    = -8.5539063e-09
    Cd    = 1.7583179
    Cl    = -1.3051327e-06
    Cl(f) = -6.6112027e-07
    Cl(r) = -6.4401246e-07

fieldMinMax minmaxdomain output:
    min(p) = -0.77830125 at location (0.040619337 -1.033408 0)
    max(p) = 0.57095856 at location (-1.033408 0.040619337 1.5208403e-17)
    min(U) = (0.44425349 -0.36172291 -4.0832116e-19) at location (-1.3279551 -0.48993943 -1.7163502e-17)
    max(U) = (1.2763474 0.1530289 5.4620206e-19) at location (0.081653961 2.0743633 2.6339295e-17)

Time = 27

DILUPBiCG:  Solving for Ux, Initial residual = 0.0053411241, Final residual = 2.6869034e-09, No Iterations 6
DILUPBiCG:  Solving for Uy, Initial residual = 0.0080360841, Final residual = 8.4182157e-09, No Iterations 6
GAMG:  Solving for p, Initial residual = 0.066631383, Final residual = 6.362048e-05, No Iterations 11
GAMG:  Solving for p, Initial residual = 0.0097291723, Final residual = 6.6659273e-06, No Iterations 9
GAMG:  Solving for p, Initial residual = 0.0025733868, Final residual = 1.6251684e-06, No Iterations 9
time step continuity errors : sum local = 2.7501462e-09, global = 8.5132563e-11, cumulative = -5.72126e-08
ExecutionTime = 1.14 s  ClockTime = 1 s

fieldAverage fieldAverage output:
    Calculating averages

forceCoeffs forceCoeffs_object output:
    Cm    = -1.2639369e-08
    Cd    = 1.5985164
    Cl    = -6.2929846e-07
    Cl(f) = -3.272886e-07
    Cl(r) = -3.0200986e-07

fieldMinMax minmaxdomain output:
    min(p) = -0.7695161 at location (0.040619337 -1.033408 0)
    max(p) = 0.54462366 at location (-1.033408 0.040619337 1.5208403e-17)
    min(U) = (0.44739239 -0.36115629 -4.0136187e-19) at location (-1.3279551 -0.48993943 -1.7163502e-17)
    max(U) = (1.2783623 0.15564455 5.2495678e-19) at location (0.081653961 2.0743633 2.6339295e-17)

Time = 28

DILUPBiCG:  Solving for Ux, Initial residual = 0.0048546312, Final residual = 4.6944149e-09, No Iterations 6
DILUPBiCG:  Solving for Uy, Initial residual = 0.0090706289, Final residual = 7.7691646e-09, No Iterations 6
GAMG:  Solving for p, Initial residual = 0.067911493, Final residual = 6.2609785e-05, No Iterations 11
GAMG:  Solving for p, Initial residual = 0.015615668, Final residual = 1.0840427e-05, No Iterations 11
GAMG:  Solving for p, Initial residual = 0.003709672, Final residual = 3.5836333e-06, No Iterations 9
time step continuity errors : sum local = 4.0249179e-09, global = 1.8794222e-10, cumulative = -5.7024658e-08
ExecutionTime = 1.17 s  ClockTime = 1 s

fieldAverage fieldAverage output:
    Calculating averages

forceCoeffs forceCoeffs_object output:
    Cm    = -1.3264657e-08
    Cd    = 1.620438
    Cl    = 5.035137e-07
    Cl(f) = 2.3849219e-07
    Cl(r) = 2.6502151e-07

fieldMinMax minmaxdomain output:
    min(p) = -0.71135965 at location (0.040619337 1.033408 0)
    max(p) = 0.57207788 at location (-1.033408 0.040619337 1.5208403e-17)
    min(U) = (0.23919413 -0.35450089 -3.6263803e-19) at location (-0.96417992 -0.53993983 1.2345237e-17)
    max(U) = (1.2786478 0.15928873 4.7468586e-19) at location (0.081653961 2.0743633 2.6339295e-17)

Time = 29

DILUPBiCG:  Solving for Ux, Initial residual = 0.0048643704, Final residual = 2.6688014e-09, No Iterations 6
DILUPBiCG:  Solving for Uy, Initial residual = 0.0092693578, Final residual = 8.6969054e-09, No Iterations 6
GAMG:  Solving for p, Initial residual = 0.06155321, Final residual = 4.3654022e-05, No Iterations 14
GAMG:  Solving for p, Initial residual = 0.017002534, Final residual = 9.0589142e-06, No Iterations 10
GAMG:  Solving for p, Initial residual = 0.003809078, Final residual = 2.4686392e-06, No Iterations 9
time step continuity errors : sum local = 2.8046535e-09, global = 2.8038091e-10, cumulative = -5.6744277e-08
ExecutionTime = 1.21 s  ClockTime = 1 s

fieldAverage fieldAverage output:
    Calculating averages

forceCoeffs forceCoeffs_object output:
    Cm    = -1.0253002e-08
    Cd    = 1.7447537
    Cl    = 1.0168237e-06
    Cl(f) = 4.9815883e-07
    Cl(r) = 5.1866483e-07

fieldMinMax minmaxdomain output:
    min(p) = -0.66700163 at location (0.040619337 1.033408 0)
    max(p) = 0.61111584 at location (-1.033408 -0.040619337 -1.5206571e-17)
    min(U) = (0.23885001 -0.35437268 -3.5741238e-19) at location (-0.96417992 -0.53993983 1.2345237e-17)
    max(U) = (1.2778575 0.16465479 4.4605361e-19) at location (0.081653961 2.0743633 2.6339295e-17)

Time = 30

DILUPBiCG:  Solving for Ux, Initial residual = 0.0052789904, Final residual = 4.6816172e-09, No Iterations 6
DILUPBiCG:  Solving for Uy, Initial residual = 0.0087283137, Final residual = 7.2927881e-09, No Iterations 6
GAMG:  Solving for p, Initial residual = 0.059905229, Final residual = 5.8406098e-05, No Iterations 13
GAMG:  Solving for p, Initial residual = 0.010580124, Final residual = 9.1330623e-06, No Iterations 9
GAMG:  Solving for p, Initial residual = 0.0025955398, Final residual = 2.4067595e-06, No Iterations 9
time step continuity errors : sum local = 3.74515e-09, global = 8.9587482e-10, cumulative = -5.5848402e-08
ExecutionTime = 1.26 s  ClockTime = 1 s

fieldAverage fieldAverage output:
    Calculating averages

forceCoeffs forceCoeffs_object output:
    Cm    = -6.9024307e-09
    Cd    = 1.8287632
    Cl    = 6.2069903e-07
    Cl(f) = 3.0344708e-07
    Cl(r) = 3.1725195e-07

fieldMinMax minmaxdomain output:
    min(p) = -0.66739673 at location (0.040619337 1.033408 0)
    max(p) = 0.62349801 at location (-1.033408 -0.040619337 -1.5206571e-17)
    min(U) = (0.23788436 -0.35440373 -3.5841528e-19) at location (-0.96417992 -0.53993983 1.2345237e-17)
    max(U) = (1.277222 0.17037841 4.5493183e-19) at location (0.081653961 2.0743633 2.6339295e-17)

Time = 31

DILUPBiCG:  Solving for Ux, Initial residual = 0.0053638756, Final residual = 8.5346151e-09, No Iterations 6
DILUPBiCG:  Solving for Uy, Initial residual = 0.0073592585, Final residual = 8.1804858e-09, No Iterations 6
GAMG:  Solving for p, Initial residual = 0.053008151, Final residual = 4.9055697e-05, No Iterations 11
GAMG:  Solving for p, Initial residual = 0.0072217943, Final residual = 5.1635778e-06, No Iterations 10
GAMG:  Solving for p, Initial residual = 0.0016437478, Final residual = 1.3339988e-06, No Iterations 10
time step continuity errors : sum local = 2.482055e-09, global = 5.6136391e-10, cumulative = -5.5287038e-08
ExecutionTime = 1.29 s  ClockTime = 1 s

fieldAverage fieldAverage output:
    Calculating averages

forceCoeffs forceCoeffs_object output:
    Cm    = -6.1372253e-09
    Cd    = 1.8122204
    Cl    = -2.7605516e-08
    Cl(f) = -1.9939983e-08
    Cl(r) = -7.6655326e-09

fieldMinMax minmaxdomain output:
    min(p) = -0.69261146 at location (0.040619337 1.033408 0)
    max(p) = 0.60830543 at location (-1.033408 -0.040619337 -1.5206571e-17)
    min(U) = (0.23731935 -0.35444027 -3.6230055e-19) at location (-0.96417992 -0.53993983 1.2345237e-17)
    max(U) = (1.2773353 0.17492179 4.7750553e-19) at location (0.081653961 2.0743633 2.6339295e-17)

Time = 32

DILUPBiCG:  Solving for Ux, Initial residual = 0.0049696127, Final residual = 3.5648471e-09, No Iterations 6
DILUPBiCG:  Solving for Uy, Initial residual = 0.0064098417, Final residual = 5.2050297e-09, No Iterations 6
GAMG:  Solving for p, Initial residual = 0.039585469, Final residual = 3.822215e-05, No Iterations 12
GAMG:  Solving for p, Initial residual = 0.0047291097, Final residual = 2.925545e-06, No Iterations 9
GAMG:  Solving for p, Initial residual = 0.0011921191, Final residual = 1.068125e-06, No Iterations 9
time step continuity errors : sum local = 1.9097374e-09, global = -8.3249819e-11, cumulative = -5.5370288e-08
ExecutionTime = 1.33 s  ClockTime = 2 s

fieldAverage fieldAverage output:
    Calculating averages

forceCoeffs forceCoeffs_object output:
    Cm    = -7.9483387e-09
    Cd    = 1.742767
    Cl    = -4.5260328e-07
    Cl(f) = -2.3424998e-07
    Cl(r) = -2.183533e-07

fieldMinMax minmaxdomain output:
    min(p) = -0.70616422 at location (0.040619337 -1.033408 0)
    max(p) = 0.5898158 at location (-1.033408 0.040619337 1.5208403e-17)
    min(U) = (0.23744645 -0.35433791 -3.6401922e-19) at location (-0.96417992 -0.53993983 1.2345237e-17)
    max(U) = (1.291018 0.10015786 2.9788003e-19) at location (0.40588725 2.039092 -2.6265791e-17)

Time = 33

DILUPBiCG:  Solving for Ux, Initial residual = 0.0045625965, Final residual = 2.6273141e-09, No Iterations 6
DILUPBiCG:  Solving for Uy, Initial residual = 0.0068803381, Final residual = 6.6488391e-09, No Iterations 6
GAMG:  Solving for p, Initial residual = 0.037837267, Final residual = 2.826149e-05, No Iterations 11
GAMG:  Solving for p, Initial residual = 0.0046219295, Final residual = 3.6984138e-06, No Iterations 12
GAMG:  Solving for p, Initial residual = 0.0013314841, Final residual = 7.6524463e-07, No Iterations 10
time step continuity errors : sum local = 1.1715278e-09, global = 7.22386e-11, cumulative = -5.5298049e-08
ExecutionTime = 1.37 s  ClockTime = 2 s

fieldAverage fieldAverage output:
    Calculating averages

forceCoeffs forceCoeffs_object output:
    Cm    = -1.0134661e-08
    Cd    = 1.6988005
    Cl    = -2.5748695e-07
    Cl(f) = -1.3887814e-07
    Cl(r) = -1.1860882e-07

fieldMinMax minmaxdomain output:
    min(p) = -0.69391969 at location (0.040619337 -1.033408 0)
    max(p) = 0.58675834 at location (-1.033408 0.040619337 1.5208403e-17)
    min(U) = (0.2377835 -0.35409167 -3.6204457e-19) at location (-0.96417992 -0.53993983 1.2345237e-17)
    max(U) = (1.2916418 0.1041119 2.8579585e-19) at location (0.40588725 2.039092 -2.6265791e-17)

Time = 34

DILUPBiCG:  Solving for Ux, Initial residual = 0.0043580555, Final residual = 1.9477165e-09, No Iterations 6
DILUPBiCG:  Solving for Uy, Initial residual = 0.007274009, Final residual = 7.2400085e-09, No Iterations 6
GAMG:  Solving for p, Initial residual = 0.035189206, Final residual = 3.4255607e-05, No Iterations 12
GAMG:  Solving for p, Initial residual = 0.0061095912, Final residual = 4.9530668e-06, No Iterations 11
GAMG:  Solving for p, Initial residual = 0.0014270786, Final residual = 1.2420615e-06, No Iterations 9
time step continuity errors : sum local = 1.7394097e-09, global = -1.5268138e-10, cumulative = -5.5450731e-08
ExecutionTime = 1.41 s  ClockTime = 2 s

fieldAverage fieldAverage output:
    Calculating averages

forceCoeffs forceCoeffs_object output:
    Cm    = -1.0785411e-08
    Cd    = 1.7107396
    Cl    = 1.7795731e-07
    Cl(f) = 7.8193244e-08
    Cl(r) = 9.9764066e-08

fieldMinMax minmaxdomain output:
    min(p) = -0.67005244 at location (0.040619337 -1.033408 0)
    max(p) = 0.5973108 at location (-1.033408 0.040619337 1.5208403e-17)
    min(U) = (0.23777523 -0.35378609 -3.5870677e-19) at location (-0.96417992 -0.53993983 1.2345237e-17)
    max(U) = (1.2914665 0.10871692 2.7197513e-19) at location (0.40588725 2.039092 -2.6265791e-17)

Time = 35

DILUPBiCG:  Solving for Ux, Initial residual = 0.0043933208, Final residual = 2.1118943e-09, No Iterations 6
DILUPBiCG:  Solving for Uy, Initial residual = 0.0070730145, Final residual = 7.379408e-09, No Iterations 6
GAMG:  Solving for p, Initial residual = 0.032965293, Final residual = 2.3055315e-05, No Iterations 14
GAMG:  Solving for p, Initial residual = 0.0062539333, Final residual = 3.4067093e-06, No Iterations 10
GAMG:  Solving for p, Initial residual = 0.001506826, Final residual = 1.4528835e-06, No Iterations 9
time step continuity errors : sum local = 2.1668577e-09, global = 1.3895494e-10, cumulative = -5.5311776e-08
ExecutionTime = 1.45 s  ClockTime = 2 s

fieldAverage fieldAverage output:
    Calculating averages

forceCoeffs forceCoeffs_object output:
    Cm    = -9.8064221e-09
    Cd    = 1.7499902
    Cl    = 4.8916816e-07
    Cl(f) = 2.3477766e-07
    Cl(r) = 2.543905e-07

fieldMinMax minmaxdomain output:
    min(p) = -0.65499647 at location (0.040619337 1.033408 0)
    max(p) = 0.60791474 at location (-1.033408 -0.040619337 -1.5206571e-17)
    min(U) = (0.23734016 -0.35348445 -3.5684468e-19) at location (-0.96417992 -0.53993983 1.2345237e-17)
    max(U) = (1.2909398 0.11377307 2.6664665e-19) at location (0.40588725 2.039092 -2.6265791e-17)

Time = 36

DILUPBiCG:  Solving for Ux, Initial residual = 0.004497211, Final residual = 3.1644871e-09, No Iterations 6
DILUPBiCG:  Solving for Uy, Initial residual = 0.006418963, Final residual = 1.2130059e-09, No Iterations 7
GAMG:  Solving for p, Initial residual = 0.029939328, Final residual = 2.3915032e-05, No Iterations 13
GAMG:  Solving for p, Initial residual = 0.0051359986, Final residual = 4.5732902e-06, No Iterations 9
GAMG:  Solving for p, Initial residual = 0.0012552629, Final residual = 1.0004336e-06, No Iterations 10
time step continuity errors : sum local = 1.6564884e-09, global = -3.12183e-10, cumulative = -5.5623959e-08
ExecutionTime = 1.48 s  ClockTime = 2 s

fieldAverage fieldAverage output:
    Calculating averages

forceCoeffs forceCoeffs_object output:
    Cm    = -8.3883245e-09
    Cd    = 1.773104
    Cl    = 4.0471608e-07
    Cl(f) = 1.9396972e-07
    Cl(r) = 2.1074637e-07

fieldMinMax minmaxdomain output:
    min(p) = -0.65464909 at location (0.040619337 1.033408 0)
    max(p) = 0.60961776 at location (-1.033408 -0.040619337 -1.5206571e-17)
    min(U) = (0.23679912 -0.35318332 -3.5702971e-19) at location (-0.96417992 -0.53993983 1.2345237e-17)
    max(U) = (1.2905168 0.11853016 2.6920851e-19) at location (0.40588725 2.039092 -2.6265791e-17)

Time = 37

DILUPBiCG:  Solving for Ux, Initial residual = 0.0044266379, Final residual = 7.9735496e-10, No Iterations 7
DILUPBiCG:  Solving for Uy, Initial residual = 0.0057642205, Final residual = 1.1727878e-09, No Iterations 7
GAMG:  Solving for p, Initial residual = 0.025096022, Final residual = 1.5816944e-05, No Iterations 11
GAMG:  Solving for p, Initial residual = 0.0037075644, Final residual = 2.3342724e-06, No Iterations 10
GAMG:  Solving for p, Initial residual = 0.0008661981, Final residual = 8.8943036e-07, No Iterations 10
time step continuity errors : sum local = 1.5252418e-09, global = 2.9893792e-10, cumulative = -5.5325021e-08
ExecutionTime = 1.53 s  ClockTime = 2 s

fieldAverage fieldAverage output:
    Calculating averages

forceCoeffs forceCoeffs_object output:
    Cm    = -7.8922116e-09
    Cd    = 1.7646812
    Cl    = 9.0987547e-08
    Cl(f) = 3.7601562e-08
    Cl(r) = 5.3385985e-08

fieldMinMax minmaxdomain output:
    min(p) = -0.65961977 at location (0.040619337 1.033408 0)
    max(p) = 0.60454783 at location (-1.033408 -0.040619337 -1.5206571e-17)
    min(U) = (0.23644997 -0.35284723 -3.5775434e-19) at location (-0.96417992 -0.53993983 1.2345237e-17)
    max(U) = (1.2902527 0.12258377 2.7202446e-19) at location (0.40588725 2.039092 -2.6265791e-17)

Time = 38

DILUPBiCG:  Solving for Ux, Initial residual = 0.004223169, Final residual = 3.6329404e-09, No Iterations 6
DILUPBiCG:  Solving for Uy, Initial residual = 0.0056947245, Final residual = 1.180773e-09, No Iterations 7
GAMG:  Solving for p, Initial residual = 0.022422319, Final residual = 2.1234729e-05, No Iterations 11
GAMG:  Solving for p, Initial residual = 0.0023161505, Final residual = 1.9952717e-06, No Iterations 10
GAMG:  Solving for p, Initial residual = 0.00066400231, Final residual = 7.0717327e-07, No Iterations 10
time step continuity errors : sum local = 1.1634461e-09, global = 2.4104202e-10, cumulative = -5.5083979e-08
ExecutionTime = 1.56 s  ClockTime = 2 s

fieldAverage fieldAverage output:
    Calculating averages

forceCoeffs forceCoeffs_object output:
    Cm    = -8.5610136e-09
    Cd    = 1.7418545
    Cl    = -9.6496245e-08
    Cl(f) = -5.6809136e-08
    Cl(r) = -3.9687109e-08

fieldMinMax minmaxdomain output:
    min(p) = -0.65877356 at location (0.040619337 -1.033408 0)
    max(p) = 0.60013266 at location (-1.033408 0.040619337 1.5208403e-17)
    min(U) = (0.23629941 -0.35245909 -3.5747802e-19) at location (-0.96417992 -0.53993983 1.2345237e-17)
    max(U) = (1.2898934 0.12609348 2.6947276e-19) at location (0.40588725 2.039092 -2.6265791e-17)

Time = 39

DILUPBiCG:  Solving for Ux, Initial residual = 0.0040311515, Final residual = 1.8315273e-09, No Iterations 6
DILUPBiCG:  Solving for Uy, Initial residual = 0.00585628, Final residual = 1.252619e-09, No Iterations 7
GAMG:  Solving for p, Initial residual = 0.022339254, Final residual = 1.7511755e-05, No Iterations 12
GAMG:  Solving for p, Initial residual = 0.0026164052, Final residual = 1.924433e-06, No Iterations 12
GAMG:  Solving for p, Initial residual = 0.0007968888, Final residual = 9.6292854e-07, No Iterations 9
time step continuity errors : sum local = 1.4974663e-09, global = 1.9050093e-10, cumulative = -5.4893478e-08
ExecutionTime = 1.6 s  ClockTime = 2 s

fieldAverage fieldAverage output:
    Calculating averages

forceCoeffs forceCoeffs_object output:
    Cm    = -9.4438277e-09
    Cd    = 1.7287974
    Cl    = -5.4900878e-08
    Cl(f) = -3.6894267e-08
    Cl(r) = -1.8006611e-08

fieldMinMax minmaxdomain output:
    min(p) = -0.64999603 at location (0.040619337 -1.033408 0)
    max(p) = 0.60057101 at location (-1.033408 0.040619337 1.5208403e-17)
    min(U) = (0.23615164 -0.3520328 -3.5605639e-19) at location (-0.96417992 -0.53993983 1.2345237e-17)
    max(U) = (1.2892047 0.12951647 2.6258958e-19) at location (0.40588725 2.039092 -2.6265791e-17)

Time = 40

DILUPBiCG:  Solving for Ux, Initial residual = 0.0039341828, Final residual = 1.9949462e-09, No Iterations 6
DILUPBiCG:  Solving for Uy, Initial residual = 0.0058229807, Final residual = 1.3259142e-09, No Iterations 7
GAMG:  Solving for p, Initial residual = 0.020801791, Final residual = 1.9544991e-05, No Iterations 13
GAMG:  Solving for p, Initial residual = 0.0033423943, Final residual = 2.1291419e-06, No Iterations 11
GAMG:  Solving for p, Initial residual = 0.00086837105, Final residual = 6.3305146e-07, No Iterations 10
time step continuity errors : sum local = 9.7492664e-10, global = -1.3487618e-10, cumulative = -5.5028354e-08
ExecutionTime = 1.64 s  ClockTime = 2 s

fieldAverage fieldAverage output:
    Calculating averages

forceCoeffs forceCoeffs_object output:
    Cm    = -9.7834204e-09
    Cd    = 1.7332209
    Cl    = 1.256963e-07
    Cl(f) = 5.306473e-08
    Cl(r) = 7.2631571e-08

fieldMinMax minmaxdomain output:
    min(p) = -0.63919896 at location (0.040619337 1.033408 0)
    max(p) = 0.60419459 at location (-1.033408 -0.040619337 -1.5206571e-17)
    min(U) = (0.23585667 -0.35159147 -3.5443424e-19) at location (-0.96417992 -0.53993983 1.2345237e-17)
    max(U) = (1.2881563 0.1331115 2.5612745e-19) at location (0.40588725 2.039092 -2.6265791e-17)

Time = 41

DILUPBiCG:  Solving for Ux, Initial residual = 0.0039091904, Final residual = 3.568193e-09, No Iterations 6
DILUPBiCG:  Solving for Uy, Initial residual = 0.0055294627, Final residual = 1.3614171e-09, No Iterations 7
GAMG:  Solving for p, Initial residual = 0.019604603, Final residual = 1.9546262e-05, No Iterations 13
GAMG:  Solving for p, Initial residual = 0.0036530691, Final residual = 3.0800807e-06, No Iterations 10
GAMG:  Solving for p, Initial residual = 0.00088783778, Final residual = 7.0091251e-07, No Iterations 10
time step continuity errors : sum local = 1.1178416e-09, global = 6.0770508e-11, cumulative = -5.4967584e-08
ExecutionTime = 1.69 s  ClockTime = 2 s

fieldAverage fieldAverage output:
    Calculating averages

forceCoeffs forceCoeffs_object output:
    Cm    = -9.3920959e-09
    Cd    = 1.7448376
    Cl    = 2.4795813e-07
    Cl(f) = 1.1458697e-07
    Cl(r) = 1.3337116e-07

fieldMinMax minmaxdomain output:
    min(p) = -0.63229776 at location (0.040619337 1.033408 0)
    max(p) = 0.60702922 at location (-1.033408 -0.040619337 -1.5206571e-17)
    min(U) = (0.23543646 -0.35114508 -3.5343767e-19) at location (-0.96417992 -0.53993983 1.2345237e-17)
    max(U) = (1.2869283 0.13673993 2.5307053e-19) at location (0.40588725 2.039092 -2.6265791e-17)

Time = 42

DILUPBiCG:  Solving for Ux, Initial residual = 0.0038688272, Final residual = 3.538451e-09, No Iterations 6
DILUPBiCG:  Solving for Uy, Initial residual = 0.0052173666, Final residual = 1.3900171e-09, No Iterations 7
GAMG:  Solving for p, Initial residual = 0.017544976, Final residual = 1.5914688e-05, No Iterations 12
GAMG:  Solving for p, Initial residual = 0.0032797039, Final residual = 2.701779e-06, No Iterations 10
GAMG:  Solving for p, Initial residual = 0.00077399318, Final residual = 7.6719245e-07, No Iterations 10
time step continuity errors : sum local = 1.2634079e-09, global = -2.1613463e-11, cumulative = -5.4989197e-08
ExecutionTime = 1.72 s  ClockTime = 2 s

fieldAverage fieldAverage output:
    Calculating averages

forceCoeffs forceCoeffs_object output:
    Cm    = -8.8123244e-09
    Cd    = 1.7501804
    Cl    = 2.4816257e-07
    Cl(f) = 1.1526896e-07
    Cl(r) = 1.3289361e-07

fieldMinMax minmaxdomain output:
    min(p) = -0.62981452 at location (0.040619337 1.033408 0)
    max(p) = 0.6071725 at location (-1.033408 -0.040619337 -1.5206571e-17)
    min(U) = (0.23501153 -0.3506891 -3.5306134e-19) at location (-0.96417992 -0.53993983 1.2345237e-17)
    max(U) = (1.2857031 0.14013014 2.5244746e-19) at location (0.40588725 2.039092 -2.6265791e-17)

Time = 43

DILUPBiCG:  Solving for Ux, Initial residual = 0.0037713341, Final residual = 2.0968608e-09, No Iterations 6
DILUPBiCG:  Solving for Uy, Initial residual = 0.005142682, Final residual = 1.4586828e-09, No Iterations 7
GAMG:  Solving for p, Initial residual = 0.015757843, Final residual = 1.4693227e-05, No Iterations 11
GAMG:  Solving for p, Initial residual = 0.0025736878, Final residual = 1.223988e-06, No Iterations 11
GAMG:  Solving for p, Initial residual = 0.0006095166, Final residual = 7.1790867e-07, No Iterations 10
time step continuity errors : sum local = 1.1813854e-09, global = -3.0341188e-11, cumulative = -5.5019538e-08
ExecutionTime = 1.77 s  ClockTime = 2 s

fieldAverage fieldAverage output:
    Calculating averages

forceCoeffs forceCoeffs_object output:
    Cm    = -8.5242042e-09
    Cd    = 1.745485
    Cl    = 1.4249986e-07
    Cl(f) = 6.2725726e-08
    Cl(r) = 7.9774134e-08

fieldMinMax minmaxdomain output:
    min(p) = -0.62817161 at location (0.040619337 1.033408 0)
    max(p) = 0.6057763 at location (-1.033408 -0.040619337 -1.5206571e-17)
    min(U) = (0.23466027 -0.35021734 -3.5274265e-19) at location (-0.96417992 -0.53993983 1.2345237e-17)
    max(U) = (1.2845228 0.1431718 2.5142453e-19) at location (0.40588725 2.039092 -2.6265791e-17)

Time = 44

DILUPBiCG:  Solving for Ux, Initial residual = 0.0036435836, Final residual = 2.799612e-09, No Iterations 6
DILUPBiCG:  Solving for Uy, Initial residual = 0.0051692214, Final residual = 1.5776129e-09, No Iterations 7
GAMG:  Solving for p, Initial residual = 0.015073193, Final residual = 1.0544003e-05, No Iterations 12
GAMG:  Solving for p, Initial residual = 0.0020358452, Final residual = 1.9856127e-06, No Iterations 10
GAMG:  Solving for p, Initial residual = 0.00057446584, Final residual = 6.0872453e-07, No Iterations 10
time step continuity errors : sum local = 9.7776835e-10, global = -1.2854402e-10, cumulative = -5.5148082e-08
ExecutionTime = 1.8 s  ClockTime = 2 s

fieldAverage fieldAverage output:
    Calculating averages

forceCoeffs forceCoeffs_object output:
    Cm    = -8.6297252e-09
    Cd    = 1.7369492
    Cl    = 6.0155484e-08
    Cl(f) = 2.1448017e-08
    Cl(r) = 3.8707467e-08

fieldMinMax minmaxdomain output:
    min(p) = -0.62430718 at location (0.040619337 1.033408 0)
    max(p) = 0.60494222 at location (-1.033408 -0.040619337 -1.5206571e-17)
    min(U) = (0.23436229 -0.34973137 -3.5205461e-19) at location (-0.96417992 -0.53993983 1.2345237e-17)
    max(U) = (1.2832909 0.14598325 2.4847073e-19) at location (0.40588725 2.039092 -2.6265791e-17)

Time = 45

DILUPBiCG:  Solving for Ux, Initial residual = 0.0035300528, Final residual = 4.1826209e-09, No Iterations 6
DILUPBiCG:  Solving for Uy, Initial residual = 0.0051557766, Final residual = 1.6250884e-09, No Iterations 7
GAMG:  Solving for p, Initial residual = 0.014756101, Final residual = 1.3783297e-05, No Iterations 12
GAMG:  Solving for p, Initial residual = 0.0021938821, Final residual = 1.7053064e-06, No Iterations 11
GAMG:  Solving for p, Initial residual = 0.00065113509, Final residual = 8.7430231e-07, No Iterations 9
time step continuity errors : sum local = 1.3780294e-09, global = -1.2564611e-10, cumulative = -5.5273728e-08
ExecutionTime = 1.85 s  ClockTime = 2 s

fieldAverage fieldAverage output:
    Calculating averages

forceCoeffs forceCoeffs_object output:
    Cm    = -8.8673335e-09
    Cd    = 1.7320796
    Cl    = 8.9922825e-08
    Cl(f) = 3.6094079e-08
    Cl(r) = 5.3828746e-08

fieldMinMax minmaxdomain output:
    min(p) = -0.61828764 at location (0.040619337 1.033408 0)
    max(p) = 0.60551093 at location (-1.033408 -0.040619337 -1.5206571e-17)
    min(U) = (0.23405063 -0.34923869 -3.5104998e-19) at location (-0.96417992 -0.53993983 1.2345237e-17)
    max(U) = (1.2819161 0.14873508 2.4434497e-19) at location (0.40588725 2.039092 -2.6265791e-17)

Time = 46

DILUPBiCG:  Solving for Ux, Initial residual = 0.0034487495, Final residual = 5.5243846e-09, No Iterations 6
DILUPBiCG:  Solving for Uy, Initial residual = 0.0050629721, Final residual = 1.5353626e-09, No Iterations 7
GAMG:  Solving for p, Initial residual = 0.014278815, Final residual = 1.1395167e-05, No Iterations 13
GAMG:  Solving for p, Initial residual = 0.0025577916, Final residual = 1.2709901e-06, No Iterations 11
GAMG:  Solving for p, Initial residual = 0.00069273342, Final residual = 8.8085929e-07, No Iterations 9
time step continuity errors : sum local = 1.3908331e-09, global = 1.4417383e-10, cumulative = -5.5129555e-08
ExecutionTime = 1.88 s  ClockTime = 2 s

fieldAverage fieldAverage output:
    Calculating averages

forceCoeffs forceCoeffs_object output:
    Cm    = -8.8992674e-09
    Cd    = 1.7326672
    Cl    = 1.6126412e-07
    Cl(f) = 7.1732795e-08
    Cl(r) = 8.953133e-08

fieldMinMax minmaxdomain output:
    min(p) = -0.61221596 at location (0.040619337 1.033408 0)
    max(p) = 0.60675429 at location (-1.033408 -0.040619337 -1.5206571e-17)
    min(U) = (0.23368932 -0.34874553 -3.5005859e-19) at location (-0.96417992 -0.53993983 1.2345237e-17)
    max(U) = (1.2803972 0.1514883 2.4068967e-19) at location (0.40588725 2.039092 -2.6265791e-17)

Time = 47

DILUPBiCG:  Solving for Ux, Initial residual = 0.003382417, Final residual = 6.6259674e-09, No Iterations 6
DILUPBiCG:  Solving for Uy, Initial residual = 0.0049776788, Final residual = 1.4563903e-09, No Iterations 7
GAMG:  Solving for p, Initial residual = 0.013496753, Final residual = 1.1651287e-05, No Iterations 12
GAMG:  Solving for p, Initial residual = 0.0027704599, Final residual = 1.4094523e-06, No Iterations 11
GAMG:  Solving for p, Initial residual = 0.00067280974, Final residual = 9.0796722e-07, No Iterations 9
time step continuity errors : sum local = 1.4531364e-09, global = 8.7180047e-12, cumulative = -5.5120837e-08
ExecutionTime = 1.91 s  ClockTime = 2 s

fieldAverage fieldAverage output:
    Calculating averages

forceCoeffs forceCoeffs_object output:
    Cm    = -8.6126612e-09
    Cd    = 1.7350223
    Cl    = 1.9108904e-07
    Cl(f) = 8.693186e-08
    Cl(r) = 1.0415718e-07

fieldMinMax minmaxdomain output:
    min(p) = -0.60764396 at location (0.040619337 1.033408 0)
    max(p) = 0.60758189 at location (-1.033408 -0.040619337 -1.5206571e-17)
    min(U) = (0.23329723 -0.34825314 -3.4929992e-19) at location (-0.96417992 -0.53993983 1.2345237e-17)
    max(U) = (1.2788061 0.15417947 2.382719e-19) at location (0.40588725 2.039092 -2.6265791e-17)

Time = 48

DILUPBiCG:  Solving for Ux, Initial residual = 0.0033065058, Final residual = 7.3130419e-09, No Iterations 6
DILUPBiCG:  Solving for Uy, Initial residual = 0.0049407707, Final residual = 1.3970402e-09, No Iterations 7
GAMG:  Solving for p, Initial residual = 0.012570116, Final residual = 1.0550069e-05, No Iterations 12
GAMG:  Solving for p, Initial residual = 0.0026214026, Final residual = 1.3766012e-06, No Iterations 11
GAMG:  Solving for p, Initial residual = 0.00061909648, Final residual = 8.7536063e-07, No Iterations 9
time step continuity errors : sum local = 1.4111873e-09, global = 5.2565838e-11, cumulative = -5.5068271e-08
ExecutionTime = 1.96 s  ClockTime = 2 s

fieldAverage fieldAverage output:
    Calculating averages

forceCoeffs forceCoeffs_object output:
    Cm    = -8.2270728e-09
    Cd    = 1.734994
    Cl    = 1.4943318e-07
    Cl(f) = 6.6489516e-08
    Cl(r) = 8.2943662e-08

fieldMinMax minmaxdomain output:
    min(p) = -0.60434994 at location (0.040619337 1.033408 0)
    max(p) = 0.60764384 at location (-1.033408 -0.040619337 -1.5206571e-17)
    min(U) = (0.23291411 -0.34775997 -3.4872278e-19) at location (-0.96417992 -0.53993983 1.2345237e-17)
    max(U) = (1.2772109 0.1567219 2.3657586e-19) at location (0.40588725 2.039092 -2.6265791e-17)

Time = 49

DILUPBiCG:  Solving for Ux, Initial residual = 0.0032151464, Final residual = 8.4158153e-09, No Iterations 6
DILUPBiCG:  Solving for Uy, Initial residual = 0.0049214788, Final residual = 1.3585218e-09, No Iterations 7
GAMG:  Solving for p, Initial residual = 0.011853764, Final residual = 9.3340975e-06, No Iterations 13
GAMG:  Solving for p, Initial residual = 0.0022863766, Final residual = 1.2101465e-06, No Iterations 11
GAMG:  Solving for p, Initial residual = 0.00055472266, Final residual = 8.0446845e-07, No Iterations 9
time step continuity errors : sum local = 1.2889879e-09, global = 8.9613506e-12, cumulative = -5.5059309e-08
ExecutionTime = 2 s  ClockTime = 2 s

fieldAverage fieldAverage output:
    Calculating averages

forceCoeffs forceCoeffs_object output:
    Cm    = -7.9630654e-09
    Cd    = 1.7318134
    Cl    = 8.8396645e-08
    Cl(f) = 3.6235257e-08
    Cl(r) = 5.2161388e-08

fieldMinMax minmaxdomain output:
    min(p) = -0.60113575 at location (0.040619337 1.033408 0)
    max(p) = 0.60738059 at location (-1.033408 -0.040619337 -1.5206571e-17)
    min(U) = (0.23255868 -0.34726563 -3.4814156e-19) at location (-0.96417992 -0.53993983 1.2345237e-17)
    max(U) = (1.2756248 0.15909605 2.3467791e-19) at location (0.40588725 2.039092 -2.6265791e-17)

Time = 50

DILUPBiCG:  Solving for Ux, Initial residual = 0.0031193498, Final residual = 2.6132438e-10, No Iterations 7
DILUPBiCG:  Solving for Uy, Initial residual = 0.0048900351, Final residual = 1.3435226e-09, No Iterations 7
GAMG:  Solving for p, Initial residual = 0.011527797, Final residual = 1.0589099e-05, No Iterations 13
GAMG:  Solving for p, Initial residual = 0.0020185308, Final residual = 1.0921637e-06, No Iterations 11
GAMG:  Solving for p, Initial residual = 0.00055087789, Final residual = 7.0680838e-07, No Iterations 9
time step continuity errors : sum local = 1.119132e-09, global = -4.9452233e-11, cumulative = -5.5108762e-08
ExecutionTime = 2.04 s  ClockTime = 2 s

fieldAverage fieldAverage output:
    Calculating averages

forceCoeffs forceCoeffs_object output:
    Cm    = -7.8321581e-09
    Cd    = 1.7276915
    Cl    = 5.912347e-08
    Cl(f) = 2.1729577e-08
    Cl(r) = 3.7393893e-08

fieldMinMax minmaxdomain output:
    min(p) = -0.59723525 at location (0.040619337 1.033408 0)
    max(p) = 0.60735184 at location (-1.033408 -0.040619337 -1.5206571e-17)
    min(U) = (0.43957773 -0.35572281 -4.1034722e-19) at location (-1.3279551 -0.48993943 -1.7163502e-17)
    max(U) = (1.2740185 0.16135044 2.3220673e-19) at location (0.40588725 2.039092 -2.6265791e-17)

Time = 51

DILUPBiCG:  Solving for Ux, Initial residual = 0.0030320753, Final residual = 2.7455138e-10, No Iterations 7
DILUPBiCG:  Solving for Uy, Initial residual = 0.004840933, Final residual = 1.3290917e-09, No Iterations 7
GAMG:  Solving for p, Initial residual = 0.011417191, Final residual = 1.0913119e-05, No Iterations 13
GAMG:  Solving for p, Initial residual = 0.0020777811, Final residual = 1.1357578e-06, No Iterations 11
GAMG:  Solving for p, Initial residual = 0.00059057711, Final residual = 6.1099463e-07, No Iterations 9
time step continuity errors : sum local = 9.6080796e-10, global = -6.1420561e-11, cumulative = -5.5170182e-08
ExecutionTime = 2.07 s  ClockTime = 2 s

fieldAverage fieldAverage output:
    Calculating averages

forceCoeffs forceCoeffs_object output:
    Cm    = -7.7164106e-09
    Cd    = 1.7249191
    Cl    = 7.5931144e-08
    Cl(f) = 3.0249161e-08
    Cl(r) = 4.5681983e-08

fieldMinMax minmaxdomain output:
    min(p) = -0.59288181 at location (-0.040619337 1.033408 0)
    max(p) = 0.60769526 at location (-1.033408 -0.040619337 -1.5206571e-17)
    min(U) = (0.43910727 -0.355443 -4.0990553e-19) at location (-1.3279551 -0.48993943 -1.7163502e-17)
    max(U) = (1.2723651 0.16354077 2.2949844e-19) at location (0.40588725 2.039092 -2.6265791e-17)

Time = 52

DILUPBiCG:  Solving for Ux, Initial residual = 0.0029556401, Final residual = 2.3407551e-10, No Iterations 7
DILUPBiCG:  Solving for Uy, Initial residual = 0.0047900495, Final residual = 1.3184575e-09, No Iterations 7
GAMG:  Solving for p, Initial residual = 0.011088921, Final residual = 1.0956412e-05, No Iterations 13
GAMG:  Solving for p, Initial residual = 0.0022570701, Final residual = 1.2028821e-06, No Iterations 11
GAMG:  Solving for p, Initial residual = 0.00060470823, Final residual = 5.7951949e-07, No Iterations 9
time step continuity errors : sum local = 9.1232894e-10, global = -4.1177504e-11, cumulative = -5.521136e-08
ExecutionTime = 2.11 s  ClockTime = 2 s

fieldAverage fieldAverage output:
    Calculating averages

forceCoeffs forceCoeffs_object output:
    Cm    = -7.4862807e-09
    Cd    = 1.7238215
    Cl    = 1.1332051e-07
    Cl(f) = 4.9173973e-08
    Cl(r) = 6.4146535e-08

fieldMinMax minmaxdomain output:
    min(p) = -0.58877498 at location (-0.040619337 1.033408 0)
    max(p) = 0.60815334 at location (-1.033408 -0.040619337 -1.5206571e-17)
    min(U) = (0.43861914 -0.35517171 -4.0947903e-19) at location (-1.3279551 -0.48993943 -1.7163502e-17)
    max(U) = (1.2706687 0.16568172 2.2706735e-19) at location (0.40588725 2.039092 -2.6265791e-17)

Time = 53

DILUPBiCG:  Solving for Ux, Initial residual = 0.0028826152, Final residual = 3.3833198e-10, No Iterations 7
DILUPBiCG:  Solving for Uy, Initial residual = 0.004743061, Final residual = 1.3102535e-09, No Iterations 7
GAMG:  Solving for p, Initial residual = 0.010683696, Final residual = 9.0547109e-06, No Iterations 14
GAMG:  Solving for p, Initial residual = 0.0023367288, Final residual = 1.1955438e-06, No Iterations 11
GAMG:  Solving for p, Initial residual = 0.00058784311, Final residual = 5.383982e-07, No Iterations 9
time step continuity errors : sum local = 8.5080895e-10, global = 4.5992872e-11, cumulative = -5.5165367e-08
ExecutionTime = 2.16 s  ClockTime = 2 s

fieldAverage fieldAverage output:
    Calculating averages

forceCoeffs forceCoeffs_object output:
    Cm    = -7.1426636e-09
    Cd    = 1.7231014
    Cl    = 1.2838997e-07
    Cl(f) = 5.705232e-08
    Cl(r) = 7.1337647e-08

fieldMinMax minmaxdomain output:
    min(p) = -0.58519914 at location (-0.040619337 1.033408 0)
    max(p) = 0.60844393 at location (-1.033408 -0.040619337 -1.5206571e-17)
    min(U) = (0.43811881 -0.35490678 -4.0894455e-19) at location (-1.3279551 -0.48993943 -1.7163502e-17)
    max(U) = (1.2689565 0.16775068 2.2508878e-19) at location (0.40588725 2.039092 -2.6265791e-17)

Time = 54

DILUPBiCG:  Solving for Ux, Initial residual = 0.0028074002, Final residual = 3.131595e-09, No Iterations 6
DILUPBiCG:  Solving for Uy, Initial residual = 0.0046907843, Final residual = 1.3100172e-09, No Iterations 7
GAMG:  Solving for p, Initial residual = 0.010167205, Final residual = 9.7156385e-06, No Iterations 14
GAMG:  Solving for p, Initial residual = 0.002247084, Final residual = 1.1740094e-06, No Iterations 11
GAMG:  Solving for p, Initial residual = 0.00056037834, Final residual = 9.5701291e-07, No Iterations 8
time step continuity errors : sum local = 1.5127541e-09, global = 1.1008404e-11, cumulative = -5.5154358e-08
ExecutionTime = 2.2 s  ClockTime = 2 s

fieldAverage fieldAverage output:
    Calculating averages

forceCoeffs forceCoeffs_object output:
    Cm    = -6.771722e-09
    Cd    = 1.7215285
    Cl    = 6.1422662e-08
    Cl(f) = 2.3939609e-08
    Cl(r) = 3.7483053e-08

fieldMinMax minmaxdomain output:
    min(p) = -0.58202286 at location (-0.040619337 1.033408 0)
    max(p) = 0.60851834 at location (-1.033408 -0.040619337 -1.5206571e-17)
    min(U) = (0.2308134 -0.3448474 -3.4470071e-19) at location (-0.96417992 -0.53993983 1.2345237e-17)
    max(U) = (1.2672523 0.16972322 2.233527e-19) at location (0.40588725 2.039092 -2.6265791e-17)

Time = 55

DILUPBiCG:  Solving for Ux, Initial residual = 0.0027292565, Final residual = 2.3517859e-09, No Iterations 6
DILUPBiCG:  Solving for Uy, Initial residual = 0.0046297498, Final residual = 1.3647135e-09, No Iterations 7
GAMG:  Solving for p, Initial residual = 0.009726401, Final residual = 6.1944837e-06, No Iterations 15
GAMG:  Solving for p, Initial residual = 0.0020506968, Final residual = 1.07029e-06, No Iterations 11
GAMG:  Solving for p, Initial residual = 0.00053548936, Final residual = 8.636467e-07, No Iterations 8
time step continuity errors : sum local = 1.3596128e-09, global = 4.9120609e-11, cumulative = -5.5105238e-08
ExecutionTime = 2.24 s  ClockTime = 2 s

fieldAverage fieldAverage output:
    Calculating averages

forceCoeffs forceCoeffs_object output:
    Cm    = -6.5046193e-09
    Cd    = 1.7190158
    Cl    = 3.8545329e-08
    Cl(f) = 1.2768045e-08
    Cl(r) = 2.5777284e-08

fieldMinMax minmaxdomain output:
    min(p) = -0.57890047 at location (-0.040619337 1.033408 0)
    max(p) = 0.60852006 at location (-1.033408 -0.040619337 -1.5206571e-17)
    min(U) = (0.23047653 -0.34437982 -3.4410825e-19) at location (-0.96417992 -0.53993983 1.2345237e-17)
    max(U) = (1.2655612 0.17159875 2.2157492e-19) at location (0.40588725 2.039092 -2.6265791e-17)

Time = 56

DILUPBiCG:  Solving for Ux, Initial residual = 0.0026526817, Final residual = 1.837232e-09, No Iterations 6
DILUPBiCG:  Solving for Uy, Initial residual = 0.004566796, Final residual = 1.3031909e-09, No Iterations 7
GAMG:  Solving for p, Initial residual = 0.0095371935, Final residual = 6.3014961e-06, No Iterations 15
GAMG:  Solving for p, Initial residual = 0.0019231373, Final residual = 9.9956129e-07, No Iterations 11
GAMG:  Solving for p, Initial residual = 0.00053029986, Final residual = 8.1937792e-07, No Iterations 8
time step continuity errors : sum local = 1.2838662e-09, global = 6.2248244e-11, cumulative = -5.504299e-08
ExecutionTime = 2.28 s  ClockTime = 2 s

fieldAverage fieldAverage output:
    Calculating averages

forceCoeffs forceCoeffs_object output:
    Cm    = -6.3575171e-09
    Cd    = 1.7163232
    Cl    = 5.8659382e-08
    Cl(f) = 2.2972174e-08
    Cl(r) = 3.5687208e-08

fieldMinMax minmaxdomain output:
    min(p) = -0.57565173 at location (-0.040619337 1.033408 0)
    max(p) = 0.60859026 at location (-1.033408 -0.040619337 -1.5206571e-17)
    min(U) = (0.23014791 -0.34391877 -3.4349153e-19) at location (-0.96417992 -0.53993983 1.2345237e-17)
    max(U) = (1.2638746 0.17339632 2.1966941e-19) at location (0.40588725 2.039092 -2.6265791e-17)

Time = 57

DILUPBiCG:  Solving for Ux, Initial residual = 0.0025805579, Final residual = 2.0964182e-09, No Iterations 6
DILUPBiCG:  Solving for Uy, Initial residual = 0.0045060591, Final residual = 9.6950874e-09, No Iterations 6
GAMG:  Solving for p, Initial residual = 0.0094154771, Final residual = 6.2925335e-06, No Iterations 15
GAMG:  Solving for p, Initial residual = 0.0019399344, Final residual = 1.9266974e-06, No Iterations 10
GAMG:  Solving for p, Initial residual = 0.0005401331, Final residual = 8.1917077e-07, No Iterations 8
time step continuity errors : sum local = 1.2809086e-09, global = -3.9166496e-12, cumulative = -5.5046906e-08
ExecutionTime = 2.32 s  ClockTime = 2 s

fieldAverage fieldAverage output:
    Calculating averages

forceCoeffs forceCoeffs_object output:
    Cm    = -6.2011513e-09
    Cd    = 1.7141155
    Cl    = 7.6459097e-08
    Cl(f) = 3.2028397e-08
    Cl(r) = 4.44307e-08

fieldMinMax minmaxdomain output:
    min(p) = -0.57236586 at location (-0.040619337 1.033408 0)
    max(p) = 0.60874317 at location (-1.033408 -0.040619337 -1.5206571e-17)
    min(U) = (0.22982173 -0.34346523 -3.4286764e-19) at location (-0.96417992 -0.53993983 1.2345237e-17)
    max(U) = (1.2621851 0.17513481 2.1775834e-19) at location (0.40588725 2.039092 -2.6265791e-17)

Time = 58

DILUPBiCG:  Solving for Ux, Initial residual = 0.0025121654, Final residual = 2.4507754e-09, No Iterations 6
DILUPBiCG:  Solving for Uy, Initial residual = 0.0044445707, Final residual = 9.458256e-09, No Iterations 6
GAMG:  Solving for p, Initial residual = 0.0092535201, Final residual = 6.211826e-06, No Iterations 15
GAMG:  Solving for p, Initial residual = 0.0020092828, Final residual = 1.9483941e-06, No Iterations 10
GAMG:  Solving for p, Initial residual = 0.00054159953, Final residual = 8.106008e-07, No Iterations 8
time step continuity errors : sum local = 1.2683548e-09, global = 3.7860905e-12, cumulative = -5.504312e-08
ExecutionTime = 2.36 s  ClockTime = 3 s

fieldAverage fieldAverage output:
    Calculating averages

forceCoeffs forceCoeffs_object output:
    Cm    = -5.9704757e-09
    Cd    = 1.7124169
    Cl    = 7.4124599e-08
    Cl(f) = 3.1091824e-08
    Cl(r) = 4.3032775e-08

fieldMinMax minmaxdomain output:
    min(p) = -0.56922909 at location (-0.040619337 1.033408 0)
    max(p) = 0.60889857 at location (-1.033408 -0.040619337 -1.5206571e-17)
    min(U) = (0.22949673 -0.34301958 -3.4226664e-19) at location (-0.96417992 -0.53993983 1.2345237e-17)
    max(U) = (1.2604956 0.17681806 2.159721e-19) at location (0.40588725 2.039092 -2.6265791e-17)

Time = 59

DILUPBiCG:  Solving for Ux, Initial residual = 0.0024457241, Final residual = 1.9935189e-09, No Iterations 6
DILUPBiCG:  Solving for Uy, Initial residual = 0.004377963, Final residual = 9.3689758e-09, No Iterations 6
GAMG:  Solving for p, Initial residual = 0.0090277095, Final residual = 6.1839802e-06, No Iterations 15
GAMG:  Solving for p, Initial residual = 0.0020234611, Final residual = 1.9691291e-06, No Iterations 10
GAMG:  Solving for p, Initial residual = 0.00053375245, Final residual = 7.9336637e-07, No Iterations 8
time step continuity errors : sum local = 1.2427472e-09, global = 1.1989771e-11, cumulative = -5.503113e-08
ExecutionTime = 2.4 s  ClockTime = 3 s

fieldAverage fieldAverage output:
    Calculating averages

forceCoeffs forceCoeffs_object output:
    Cm    = -5.6778449e-09
    Cd    = 1.7107968
    Cl    = 5.8445135e-08
    Cl(f) = 2.3544723e-08
    Cl(r) = 3.4900413e-08

fieldMinMax minmaxdomain output:
    min(p) = -0.56632096 at location (-0.040619337 1.033408 0)
    max(p) = 0.60898826 at location (-1.033408 -0.040619337 -1.5206571e-17)
    min(U) = (0.22917594 -0.34258177 -3.417003e-19) at location (-0.96417992 -0.53993983 1.2345237e-17)
    max(U) = (1.2588226 0.17842744 2.143163e-19) at location (0.40588725 2.039092 -2.6265791e-17)

Time = 60

DILUPBiCG:  Solving for Ux, Initial residual = 0.0023802227, Final residual = 1.6050164e-09, No Iterations 6
DILUPBiCG:  Solving for Uy, Initial residual = 0.0043050211, Final residual = 9.2726851e-09, No Iterations 6
GAMG:  Solving for p, Initial residual = 0.0086736506, Final residual = 6.2137005e-06, No Iterations 15
GAMG:  Solving for p, Initial residual = 0.0019436799, Final residual = 1.9088965e-06, No Iterations 10
GAMG:  Solving for p, Initial residual = 0.00052088118, Final residual = 7.7749341e-07, No Iterations 8
time step continuity errors : sum local = 1.2174712e-09, global = 1.4652725e-11, cumulative = -5.5016478e-08
ExecutionTime = 2.44 s  ClockTime = 3 s

fieldAverage fieldAverage output:
    Calculating averages

forceCoeffs forceCoeffs_object output:
    Cm    = -5.4151381e-09
    Cd    = 1.7089046
    Cl    = 4.499071e-08
    Cl(f) = 1.7080217e-08
    Cl(r) = 2.7910493e-08

fieldMinMax minmaxdomain output:
    min(p) = -0.56357825 at location (-0.040619337 1.033408 0)
    max(p) = 0.60901262 at location (-1.033408 -0.040619337 -1.5206571e-17)
    min(U) = (0.22886266 -0.34215169 -3.4115794e-19) at location (-0.96417992 -0.53993983 1.2345237e-17)
    max(U) = (1.257174 0.17996678 2.1273128e-19) at location (0.40588725 2.039092 -2.6265791e-17)

Time = 61

DILUPBiCG:  Solving for Ux, Initial residual = 0.0023163012, Final residual = 2.0232226e-09, No Iterations 6
DILUPBiCG:  Solving for Uy, Initial residual = 0.0042310273, Final residual = 8.9461031e-09, No Iterations 6
GAMG:  Solving for p, Initial residual = 0.0083796367, Final residual = 6.2355244e-06, No Iterations 15
GAMG:  Solving for p, Initial residual = 0.0018234729, Final residual = 1.776734e-06, No Iterations 10
GAMG:  Solving for p, Initial residual = 0.00050838717, Final residual = 7.7322206e-07, No Iterations 8
time step continuity errors : sum local = 1.2090939e-09, global = 1.0757469e-11, cumulative = -5.500572e-08
ExecutionTime = 2.47 s  ClockTime = 3 s

fieldAverage fieldAverage output:
    Calculating averages

forceCoeffs forceCoeffs_object output:
    Cm    = -5.2334089e-09
    Cd    = 1.7067633
    Cl    = 4.0543472e-08
    Cl(f) = 1.5038327e-08
    Cl(r) = 2.5505145e-08

fieldMinMax minmaxdomain output:
    min(p) = -0.56090104 at location (-0.040619337 1.033408 0)
    max(p) = 0.60901452 at location (-1.033408 -0.040619337 -1.5206571e-17)
    min(U) = (0.22855762 -0.34172951 -3.4062357e-19) at location (-0.96417992 -0.53993983 1.2345237e-17)
    max(U) = (1.2555507 0.18144175 2.1115874e-19) at location (0.40588725 2.039092 -2.6265791e-17)

Time = 62

DILUPBiCG:  Solving for Ux, Initial residual = 0.0022549215, Final residual = 2.0345665e-09, No Iterations 6
DILUPBiCG:  Solving for Uy, Initial residual = 0.0041609907, Final residual = 8.6503086e-09, No Iterations 6
GAMG:  Solving for p, Initial residual = 0.0082389732, Final residual = 6.2184797e-06, No Iterations 15
GAMG:  Solving for p, Initial residual = 0.001758987, Final residual = 1.6728179e-06, No Iterations 10
GAMG:  Solving for p, Initial residual = 0.00050142583, Final residual = 7.788034e-07, No Iterations 8
time step continuity errors : sum local = 1.2166122e-09, global = 5.0006708e-12, cumulative = -5.500072e-08
ExecutionTime = 2.51 s  ClockTime = 3 s

fieldAverage fieldAverage output:
    Calculating averages

forceCoeffs forceCoeffs_object output:
    Cm    = -5.0793266e-09
    Cd    = 1.7046244
[...]

Time = 316

DILUPBiCG:  Solving for Ux, Initial residual = 5.1098686e-06, Final residual = 4.1893442e-09, No Iterations 3
DILUPBiCG:  Solving for Uy, Initial residual = 9.3738276e-06, Final residual = 2.521247e-09, No Iterations 3
GAMG:  Solving for p, Initial residual = 1.4978951e-05, Final residual = 9.561539e-07, No Iterations 4
GAMG:  Solving for p, Initial residual = 2.3201363e-06, Final residual = 4.2817008e-07, No Iterations 3
GAMG:  Solving for p, Initial residual = 6.4958721e-07, Final residual = 1.0856043e-07, No Iterations 3
time step continuity errors : sum local = 1.3824034e-10, global = 2.7232727e-11, cumulative = -5.9144366e-08
ExecutionTime = 10.94 s  ClockTime = 11 s

forceCoeffs forceCoeffs_object output:
    Cm    = -1.6349043e-09
    Cd    = 1.6239419
    Cl    = -1.7627228e-09
    Cl(f) = -2.5162657e-09
    Cl(r) = 7.5354289e-10

fieldMinMax minmaxdomain output:
    min(p) = -0.46525769 at location (-0.040619337 1.033408 0)
    max(p) = 0.61590277 at location (-1.033408 0.040619337 1.5208403e-17)
    min(U) = (0.21687185 -0.32548045 -3.2108395e-19) at location (-0.96417992 -0.53993983 1.2345237e-17)
    max(U) = (1.1941184 0.21859622 1.1876995e-19) at location (0.42727634 2.1464795 3.1731817e-17)

Time = 317

DILUPBiCG:  Solving for Ux, Initial residual = 4.9730773e-06, Final residual = 4.0805539e-09, No Iterations 3
DILUPBiCG:  Solving for Uy, Initial residual = 9.1225299e-06, Final residual = 2.4525587e-09, No Iterations 3
GAMG:  Solving for p, Initial residual = 1.4580645e-05, Final residual = 9.3067526e-07, No Iterations 4
GAMG:  Solving for p, Initial residual = 2.2565401e-06, Final residual = 4.1641494e-07, No Iterations 3
GAMG:  Solving for p, Initial residual = 6.3189003e-07, Final residual = 1.057343e-07, No Iterations 3
time step continuity errors : sum local = 1.3463307e-10, global = 2.6524196e-11, cumulative = -5.9117842e-08
ExecutionTime = 10.96 s  ClockTime = 11 s

forceCoeffs forceCoeffs_object output:
    Cm    = -1.6174006e-09
    Cd    = 1.6239397
    Cl    = -7.4847604e-10
    Cl(f) = -1.9916387e-09
    Cl(r) = 1.2431626e-09

fieldMinMax minmaxdomain output:
    min(p) = -0.46525327 at location (-0.040619337 1.033408 0)
    max(p) = 0.61590516 at location (-1.033408 0.040619337 1.5208403e-17)
    min(U) = (0.21687156 -0.32548004 -3.2108347e-19) at location (-0.96417992 -0.53993983 1.2345237e-17)
    max(U) = (1.1941168 0.21859693 1.1876956e-19) at location (0.42727634 2.1464795 3.1731817e-17)

Time = 318

DILUPBiCG:  Solving for Ux, Initial residual = 4.8398519e-06, Final residual = 3.9605839e-09, No Iterations 3
DILUPBiCG:  Solving for Uy, Initial residual = 8.8780075e-06, Final residual = 2.3859417e-09, No Iterations 3
GAMG:  Solving for p, Initial residual = 1.4192696e-05, Final residual = 9.0153219e-07, No Iterations 4
GAMG:  Solving for p, Initial residual = 2.1900477e-06, Final residual = 4.0360136e-07, No Iterations 3
GAMG:  Solving for p, Initial residual = 6.1293212e-07, Final residual = 1.0233762e-07, No Iterations 3
time step continuity errors : sum local = 1.3030005e-10, global = 2.5665359e-11, cumulative = -5.9092176e-08
ExecutionTime = 10.99 s  ClockTime = 11 s

forceCoeffs forceCoeffs_object output:
    Cm    = -1.5979995e-09
    Cd    = 1.6239375
    Cl    = -1.1026197e-09
    Cl(f) = -2.1493093e-09
    Cl(r) = 1.0466896e-09

fieldMinMax minmaxdomain output:
    min(p) = -0.46524898 at location (-0.040619337 1.033408 0)
    max(p) = 0.61590747 at location (-1.033408 0.040619337 1.5208403e-17)
    min(U) = (0.21687127 -0.32547964 -3.21083e-19) at location (-0.96417992 -0.53993983 1.2345237e-17)
    max(U) = (1.1941152 0.21859762 1.1876918e-19) at location (0.42727634 2.1464795 3.1731817e-17)

Time = 319

DILUPBiCG:  Solving for Ux, Initial residual = 4.7099837e-06, Final residual = 3.8376786e-09, No Iterations 3
DILUPBiCG:  Solving for Uy, Initial residual = 8.6401944e-06, Final residual = 2.3217505e-09, No Iterations 3
GAMG:  Solving for p, Initial residual = 1.3815099e-05, Final residual = 8.7457281e-07, No Iterations 4
GAMG:  Solving for p, Initial residual = 2.1283792e-06, Final residual = 3.9183404e-07, No Iterations 3
GAMG:  Solving for p, Initial residual = 5.9532525e-07, Final residual = 9.9173026e-08, No Iterations 3
time step continuity errors : sum local = 1.2626324e-10, global = 2.4865555e-11, cumulative = -5.9067311e-08
ExecutionTime = 11 s  ClockTime = 11 s

forceCoeffs forceCoeffs_object output:
    Cm    = -1.5789595e-09
    Cd    = 1.6239354
    Cl    = -2.1643636e-09
    Cl(f) = -2.6611413e-09
    Cl(r) = 4.967777e-10

fieldMinMax minmaxdomain output:
    min(p) = -0.46524481 at location (-0.040619337 1.033408 0)
    max(p) = 0.61590971 at location (-1.033408 0.040619337 1.5208403e-17)
    min(U) = (0.21687099 -0.32547925 -3.2108255e-19) at location (-0.96417992 -0.53993983 1.2345237e-17)
    max(U) = (1.1941137 0.21859829 1.1876881e-19) at location (0.42727634 2.1464795 3.1731817e-17)

Time = 320

DILUPBiCG:  Solving for Ux, Initial residual = 4.5835153e-06, Final residual = 3.7214327e-09, No Iterations 3
DILUPBiCG:  Solving for Uy, Initial residual = 8.4088516e-06, Final residual = 2.2596377e-09, No Iterations 3
GAMG:  Solving for p, Initial residual = 1.3447825e-05, Final residual = 8.5168211e-07, No Iterations 4
GAMG:  Solving for p, Initial residual = 2.0729097e-06, Final residual = 3.8171378e-07, No Iterations 3
GAMG:  Solving for p, Initial residual = 5.7975826e-07, Final residual = 9.6537491e-08, No Iterations 3
time step continuity errors : sum local = 1.2290059e-10, global = 2.4202412e-11, cumulative = -5.9043108e-08
ExecutionTime = 11.03 s  ClockTime = 11 s

forceCoeffs forceCoeffs_object output:
    Cm    = -1.5604495e-09
    Cd    = 1.6239333
    Cl    = -2.8545622e-09
    Cl(f) = -2.9877306e-09
    Cl(r) = 1.3316839e-10

fieldMinMax minmaxdomain output:
    min(p) = -0.46524074 at location (-0.040619337 1.033408 0)
    max(p) = 0.6159119 at location (-1.033408 0.040619337 1.5208403e-17)
    min(U) = (0.21687072 -0.32547888 -3.2108211e-19) at location (-0.96417992 -0.53993983 1.2345237e-17)
    max(U) = (1.1941122 0.21859894 1.1876846e-19) at location (0.42727634 2.1464795 3.1731817e-17)

Time = 321

DILUPBiCG:  Solving for Ux, Initial residual = 4.4605355e-06, Final residual = 3.616248e-09, No Iterations 3
DILUPBiCG:  Solving for Uy, Initial residual = 8.1836937e-06, Final residual = 2.1992253e-09, No Iterations 3
GAMG:  Solving for p, Initial residual = 1.3089243e-05, Final residual = 8.308587e-07, No Iterations 4
GAMG:  Solving for p, Initial residual = 2.0204405e-06, Final residual = 3.723369e-07, No Iterations 3
GAMG:  Solving for p, Initial residual = 5.652031e-07, Final residual = 9.4195167e-08, No Iterations 3
time step continuity errors : sum local = 1.1991175e-10, global = 2.3615486e-11, cumulative = -5.9019493e-08
ExecutionTime = 11.05 s  ClockTime = 11 s

forceCoeffs forceCoeffs_object output:
    Cm    = -1.5411787e-09
    Cd    = 1.6239313
    Cl    = -2.7735913e-09
    Cl(f) = -2.9279744e-09
    Cl(r) = 1.5438301e-10

fieldMinMax minmaxdomain output:
    min(p) = -0.46523678 at location (-0.040619337 1.033408 0)
    max(p) = 0.61591404 at location (-1.033408 0.040619337 1.5208403e-17)
    min(U) = (0.21687046 -0.32547851 -3.2108168e-19) at location (-0.96417992 -0.53993983 1.2345237e-17)
    max(U) = (1.1941107 0.21859958 1.1876811e-19) at location (0.42727634 2.1464795 3.1731817e-17)

Time = 322

DILUPBiCG:  Solving for Ux, Initial residual = 4.3409867e-06, Final residual = 3.520229e-09, No Iterations 3
DILUPBiCG:  Solving for Uy, Initial residual = 7.9644965e-06, Final residual = 2.1402179e-09, No Iterations 3
GAMG:  Solving for p, Initial residual = 1.2739174e-05, Final residual = 8.0960103e-07, No Iterations 4
GAMG:  Solving for p, Initial residual = 1.9672745e-06, Final residual = 3.6270094e-07, No Iterations 3
GAMG:  Solving for p, Initial residual = 5.5044845e-07, Final residual = 9.1813465e-08, No Iterations 3
time step continuity errors : sum local = 1.1687334e-10, global = 2.3018548e-11, cumulative = -5.8996474e-08
ExecutionTime = 11.07 s  ClockTime = 11 s

forceCoeffs forceCoeffs_object output:
    Cm    = -1.5200975e-09
    Cd    = 1.6239294
    Cl    = -2.330023e-09
    Cl(f) = -2.685109e-09
    Cl(r) = 3.5508602e-10

fieldMinMax minmaxdomain output:
    min(p) = -0.46523292 at location (-0.040619337 1.033408 0)
    max(p) = 0.61591612 at location (-1.033408 0.040619337 1.5208403e-17)
    min(U) = (0.21687021 -0.32547815 -3.2108126e-19) at location (-0.96417992 -0.53993983 1.2345237e-17)
    max(U) = (1.1941093 0.2186002 1.1876777e-19) at location (0.42727634 2.1464795 3.1731817e-17)

Time = 323

DILUPBiCG:  Solving for Ux, Initial residual = 4.2246738e-06, Final residual = 3.4289795e-09, No Iterations 3
DILUPBiCG:  Solving for Uy, Initial residual = 7.7511157e-06, Final residual = 2.0826402e-09, No Iterations 3
GAMG:  Solving for p, Initial residual = 1.2397888e-05, Final residual = 7.8737544e-07, No Iterations 4
GAMG:  Solving for p, Initial residual = 1.9131487e-06, Final residual = 3.5267148e-07, No Iterations 3
GAMG:  Solving for p, Initial residual = 5.3530955e-07, Final residual = 8.9300211e-08, No Iterations 3
time step continuity errors : sum local = 1.13668e-10, global = 2.2387277e-11, cumulative = -5.8974087e-08
ExecutionTime = 11.1 s  ClockTime = 11 s

forceCoeffs forceCoeffs_object output:
    Cm    = -1.4973635e-09
    Cd    = 1.6239275
    Cl    = -2.1057734e-09
    Cl(f) = -2.5502502e-09
    Cl(r) = 4.4447676e-10

fieldMinMax minmaxdomain output:
    min(p) = -0.46522917 at location (-0.040619337 1.033408 0)
    max(p) = 0.61591814 at location (-1.033408 0.040619337 1.5208403e-17)
    min(U) = (0.21686996 -0.3254778 -3.2108086e-19) at location (-0.96417992 -0.53993983 1.2345237e-17)
    max(U) = (1.194108 0.2186008 1.1876744e-19) at location (0.42727634 2.1464795 3.1731817e-17)

Time = 324

DILUPBiCG:  Solving for Ux, Initial residual = 4.1114083e-06, Final residual = 3.3391641e-09, No Iterations 3
DILUPBiCG:  Solving for Uy, Initial residual = 7.5434435e-06, Final residual = 2.0266336e-09, No Iterations 3
GAMG:  Solving for p, Initial residual = 1.2065694e-05, Final residual = 7.6535495e-07, No Iterations 4
GAMG:  Solving for p, Initial residual = 1.8603321e-06, Final residual = 3.4279673e-07, No Iterations 3
GAMG:  Solving for p, Initial residual = 5.2044853e-07, Final residual = 8.6790996e-08, No Iterations 3
time step continuity errors : sum local = 1.1046832e-10, global = 2.175642e-11, cumulative = -5.895233e-08
ExecutionTime = 11.12 s  ClockTime = 11 s

forceCoeffs forceCoeffs_object output:
    Cm    = -1.4739523e-09
    Cd    = 1.6239256
    Cl    = -2.2758059e-09
    Cl(f) = -2.6118552e-09
    Cl(r) = 3.3604929e-10

fieldMinMax minmaxdomain output:
    min(p) = -0.46522553 at location (-0.040619337 1.033408 0)
    max(p) = 0.61592011 at location (-1.033408 0.040619337 1.5208403e-17)
    min(U) = (0.21686971 -0.32547746 -3.2108046e-19) at location (-0.96417992 -0.53993983 1.2345237e-17)
    max(U) = (1.1941066 0.21860139 1.1876711e-19) at location (0.42727634 2.1464795 3.1731817e-17)

Time = 325

DILUPBiCG:  Solving for Ux, Initial residual = 4.0011065e-06, Final residual = 3.2498226e-09, No Iterations 3
DILUPBiCG:  Solving for Uy, Initial residual = 7.341358e-06, Final residual = 1.9722278e-09, No Iterations 3
GAMG:  Solving for p, Initial residual = 1.1743089e-05, Final residual = 7.4465489e-07, No Iterations 4
GAMG:  Solving for p, Initial residual = 1.8105296e-06, Final residual = 3.3353995e-07, No Iterations 3
GAMG:  Solving for p, Initial residual = 5.064227e-07, Final residual = 8.4429934e-08, No Iterations 3
time step continuity errors : sum local = 1.0745767e-10, global = 2.1163224e-11, cumulative = -5.8931167e-08
ExecutionTime = 11.14 s  ClockTime = 11 s

forceCoeffs forceCoeffs_object output:
    Cm    = -1.4506666e-09
    Cd    = 1.6239238
    Cl    = -2.5815909e-09
    Cl(f) = -2.7414621e-09
    Cl(r) = 1.5987112e-10

fieldMinMax minmaxdomain output:
    min(p) = -0.46522198 at location (-0.040619337 1.033408 0)
    max(p) = 0.61592202 at location (-1.033408 0.040619337 1.5208403e-17)
    min(U) = (0.21686948 -0.32547713 -3.2108008e-19) at location (-0.96417992 -0.53993983 1.2345237e-17)
    max(U) = (1.1941053 0.21860196 1.187668e-19) at location (0.42727634 2.1464795 3.1731817e-17)

Time = 326

DILUPBiCG:  Solving for Ux, Initial residual = 3.8937597e-06, Final residual = 3.1616316e-09, No Iterations 3
DILUPBiCG:  Solving for Uy, Initial residual = 7.1447045e-06, Final residual = 1.9193064e-09, No Iterations 3
GAMG:  Solving for p, Initial residual = 1.1429493e-05, Final residual = 7.2524627e-07, No Iterations 4
GAMG:  Solving for p, Initial residual = 1.7632518e-06, Final residual = 3.2485069e-07, No Iterations 3
GAMG:  Solving for p, Initial residual = 4.9316113e-07, Final residual = 8.2223813e-08, No Iterations 3
time step continuity errors : sum local = 1.0464464e-10, global = 2.0609613e-11, cumulative = -5.8910558e-08
ExecutionTime = 11.17 s  ClockTime = 11 s

forceCoeffs forceCoeffs_object output:
    Cm    = -1.4275895e-09
    Cd    = 1.6239221
    Cl    = -2.7008794e-09
    Cl(f) = -2.7780292e-09
    Cl(r) = 7.71498e-11

fieldMinMax minmaxdomain output:
    min(p) = -0.46521852 at location (-0.040619337 1.033408 0)
    max(p) = 0.61592389 at location (-1.033408 0.040619337 1.5208403e-17)
    min(U) = (0.21686925 -0.32547681 -3.210797e-19) at location (-0.96417992 -0.53993983 1.2345237e-17)
    max(U) = (1.1941041 0.21860251 1.187665e-19) at location (0.42727634 2.1464795 3.1731817e-17)

Time = 327

DILUPBiCG:  Solving for Ux, Initial residual = 3.7893414e-06, Final residual = 3.075538e-09, No Iterations 3
DILUPBiCG:  Solving for Uy, Initial residual = 6.9533131e-06, Final residual = 1.8677276e-09, No Iterations 3
GAMG:  Solving for p, Initial residual = 1.1124526e-05, Final residual = 7.063504e-07, No Iterations 4
GAMG:  Solving for p, Initial residual = 1.7169249e-06, Final residual = 3.1637328e-07, No Iterations 3
GAMG:  Solving for p, Initial residual = 4.8022312e-07, Final residual = 8.0082089e-08, No Iterations 3
time step continuity errors : sum local = 1.0191398e-10, global = 2.0072313e-11, cumulative = -5.8890485e-08
ExecutionTime = 11.19 s  ClockTime = 11 s

forceCoeffs forceCoeffs_object output:
    Cm    = -1.4043304e-09
    Cd    = 1.6239204
    Cl    = -2.5556153e-09
    Cl(f) = -2.682138e-09
    Cl(r) = 1.2652273e-10

fieldMinMax minmaxdomain output:
    min(p) = -0.46521516 at location (-0.040619337 1.033408 0)
    max(p) = 0.6159257 at location (-1.033408 0.040619337 1.5208403e-17)
    min(U) = (0.21686903 -0.32547649 -3.2107934e-19) at location (-0.96417992 -0.53993983 1.2345237e-17)
    max(U) = (1.1941028 0.21860305 1.187662e-19) at location (0.42727634 2.1464795 3.1731817e-17)

Time = 328

DILUPBiCG:  Solving for Ux, Initial residual = 3.6877623e-06, Final residual = 2.9919927e-09, No Iterations 3
DILUPBiCG:  Solving for Uy, Initial residual = 6.7670266e-06, Final residual = 1.8174338e-09, No Iterations 3
GAMG:  Solving for p, Initial residual = 1.0827158e-05, Final residual = 6.8743309e-07, No Iterations 4
GAMG:  Solving for p, Initial residual = 1.6707476e-06, Final residual = 3.0788547e-07, No Iterations 3
GAMG:  Solving for p, Initial residual = 4.6733767e-07, Final residual = 7.7938291e-08, No Iterations 3
time step continuity errors : sum local = 9.9181074e-11, global = 1.953418e-11, cumulative = -5.8870951e-08
ExecutionTime = 11.21 s  ClockTime = 11 s

forceCoeffs forceCoeffs_object output:
    Cm    = -1.3806039e-09
    Cd    = 1.6239187
    Cl    = -2.30363e-09
    Cl(f) = -2.5324189e-09
    Cl(r) = 2.2878885e-10

fieldMinMax minmaxdomain output:
    min(p) = -0.46521188 at location (-0.040619337 1.033408 0)
    max(p) = 0.61592747 at location (-1.033408 0.040619337 1.5208403e-17)
    min(U) = (0.21686881 -0.32547619 -3.2107898e-19) at location (-0.96417992 -0.53993983 1.2345237e-17)
    max(U) = (1.1941016 0.21860358 1.1876591e-19) at location (0.42727634 2.1464795 3.1731817e-17)

Time = 329

DILUPBiCG:  Solving for Ux, Initial residual = 3.5889011e-06, Final residual = 2.9110046e-09, No Iterations 3
DILUPBiCG:  Solving for Uy, Initial residual = 6.5857135e-06, Final residual = 1.7684524e-09, No Iterations 3
GAMG:  Solving for p, Initial residual = 1.0537511e-05, Final residual = 6.6864217e-07, No Iterations 4
GAMG:  Solving for p, Initial residual = 1.6252344e-06, Final residual = 2.9946884e-07, No Iterations 3
GAMG:  Solving for p, Initial residual = 4.5460797e-07, Final residual = 7.5807638e-08, No Iterations 3
time step continuity errors : sum local = 9.6465286e-11, global = 1.8999089e-11, cumulative = -5.8851952e-08
ExecutionTime = 11.23 s  ClockTime = 11 s

forceCoeffs forceCoeffs_object output:
    Cm    = -1.3565393e-09
    Cd    = 1.6239171
    Cl    = -2.1230199e-09
    Cl(f) = -2.4180493e-09
    Cl(r) = 2.9502938e-10

fieldMinMax minmaxdomain output:
    min(p) = -0.4652087 at location (-0.040619337 1.033408 0)
    max(p) = 0.61592919 at location (-1.033408 0.040619337 1.5208403e-17)
    min(U) = (0.2168686 -0.32547589 -3.2107864e-19) at location (-0.96417992 -0.53993983 1.2345237e-17)
    max(U) = (1.1941005 0.21860409 1.1876563e-19) at location (0.42727634 2.1464795 3.1731817e-17)

Time = 330

DILUPBiCG:  Solving for Ux, Initial residual = 3.49266e-06, Final residual = 9.9702053e-09, No Iterations 2
DILUPBiCG:  Solving for Uy, Initial residual = 6.4092575e-06, Final residual = 1.720822e-09, No Iterations 3
GAMG:  Solving for p, Initial residual = 1.0224825e-05, Final residual = 6.5858277e-07, No Iterations 4
GAMG:  Solving for p, Initial residual = 1.5797885e-06, Final residual = 2.9292443e-07, No Iterations 3
GAMG:  Solving for p, Initial residual = 4.4372749e-07, Final residual = 7.5216345e-08, No Iterations 3
time step continuity errors : sum local = 9.5708411e-11, global = 1.8876299e-11, cumulative = -5.8833076e-08
ExecutionTime = 11.25 s  ClockTime = 11 s

forceCoeffs forceCoeffs_object output:
    Cm    = -1.4039721e-09
    Cd    = 1.6239156
    Cl    = -1.0474672e-08
    Cl(f) = -6.6413079e-09
    Cl(r) = -3.8333638e-09

fieldMinMax minmaxdomain output:
    min(p) = -0.46520557 at location (-0.040619337 -1.033408 0)
    max(p) = 0.61593089 at location (-1.033408 0.040619337 1.5208403e-17)
    min(U) = (0.21686839 -0.3254756 -3.210783e-19) at location (-0.96417992 -0.53993983 1.2345237e-17)
    max(U) = (1.1940993 0.21860459 1.1876536e-19) at location (0.42727634 2.1464795 3.1731817e-17)

Time = 331

DILUPBiCG:  Solving for Ux, Initial residual = 3.3996522e-06, Final residual = 9.7054798e-09, No Iterations 2
DILUPBiCG:  Solving for Uy, Initial residual = 6.2366189e-06, Final residual = 1.6742481e-09, No Iterations 3
GAMG:  Solving for p, Initial residual = 9.9613821e-06, Final residual = 6.399895e-07, No Iterations 4
GAMG:  Solving for p, Initial residual = 1.5399296e-06, Final residual = 2.8495661e-07, No Iterations 3
GAMG:  Solving for p, Initial residual = 4.3191521e-07, Final residual = 7.2995467e-08, No Iterations 3
time step continuity errors : sum local = 9.287843e-11, global = 1.8314847e-11, cumulative = -5.8814761e-08
ExecutionTime = 11.27 s  ClockTime = 11 s


SIMPLE solution converged in 331 iterations

fieldAverage fieldAverage output:
    Calculating averages

    Writing average fields

forceCoeffs forceCoeffs_object output:
    Cm    = -1.450696e-09
    Cd    = 1.6239141
    Cl    = -1.6241363e-08
    Cl(f) = -9.5713776e-09
    Cl(r) = -6.6699856e-09

fieldMinMax minmaxdomain output:
    min(p) = -0.46520254 at location (-0.040619337 -1.033408 0)
    max(p) = 0.61593254 at location (-1.033408 0.040619337 1.5208403e-17)
    min(U) = (0.21686819 -0.32547532 -3.2107798e-19) at location (-0.96417992 -0.53993983 1.2345237e-17)
    max(U) = (1.1940982 0.21860507 1.1876509e-19) at location (0.42727634 2.1464795 3.1731817e-17)

End

